# File generated by Flopy version 3.11.0.dev0 on 05/27/2026 at 14:19:07.
BEGIN options
END options

BEGIN timing
  TDIS6  sv_gwt.tdis
END timing

BEGIN models
  gwt6  sv_gwt.nam  sv_gwt
END models

BEGIN exchanges
END exchanges

BEGIN solutiongroup  1
  ims6  sv_gwt.ims  sv_gwt
END solutiongroup  1

