# File generated by Flopy version 3.11.0.dev0 on 05/27/2026 at 14:19:07.
BEGIN options
END options

BEGIN packages
  DISV6  sv_gwt.disv  disv
  IC6  sv_gwt.ic  ic
  ADV6  sv_gwt.adv  adv
  DSP6  sv_gwt.dsp  dsp
  MST6  sv_gwt.mst  mst
  FMI6  sv_gwt.fmi  fmi
  SSM6  sv_gwt.ssm  ssm
  OC6  sv_gwt.oc  oc
END packages

