# File generated by Flopy version 3.11.0.dev0 on 05/27/2026 at 14:19:08.
BEGIN options
  CONCENTRATION  FILEOUT  sv.ucn
END options

BEGIN period  1
  PRINT  BUDGET  ALL
END period  1

BEGIN period  2
  SAVE  CONCENTRATION  LAST
END period  2

