# File generated by Flopy version 3.11.0.dev0 on 05/27/2026 at 14:19:08.
BEGIN options
END options

BEGIN sources
  LAK-1  AUX  CONCENTRATION
END sources

