# File generated by Flopy version 3.11.0.dev0 on 05/27/2026 at 14:19:07.
BEGIN options
END options

BEGIN griddata
  strt
    CONSTANT       0.00000000
END griddata

