# File generated by Flopy version 3.11.0.dev0 on 05/27/2026 at 14:19:07.
BEGIN options
  SCHEME  utvd
END options

