# File generated by Flopy version 3.11.0.dev0 on 05/27/2026 at 14:19:08.
BEGIN options
END options

BEGIN packagedata
  GWFHEAD  FILEIN  ../synthetic-valley-vg/sv.hds
  GWFBUDGET  FILEIN  ../synthetic-valley-vg/sv.cbc
END packagedata

