# File generated by Flopy version 3.11.0.dev0 on 05/27/2026 at 14:19:07.
BEGIN options
  PRINT_OPTION  all
  COMPLEXITY  simple
END options

BEGIN nonlinear
  OUTER_MAXIMUM  500
END nonlinear

BEGIN linear
  INNER_MAXIMUM  200
  LINEAR_ACCELERATION  bicgstab
END linear

