BEGIN options
  auxiliary  depth  iflowface
  AUXDEPTHNAME  depth
  MOVER
END options

BEGIN dimensions
  MAXBOUND  1453
END dimensions

BEGIN period  1
  1 437 3.46841615E+00 6.19810422E+01 -3.04802777E-01 -1.00000000E+00
  1 438 3.40721621E+00 1.25370489E+02 -3.04802777E-01 -1.00000000E+00
  1 439 3.37416673E+00 1.14674894E+02 -3.04802777E-01 -1.00000000E+00
  1 440 3.37416673E+00 1.01394396E+02 -3.04802777E-01 -1.00000000E+00
  1 441 3.37416673E+00 9.88392339E+01 -3.04802777E-01 -1.00000000E+00
  1 442 3.37195886E+00 8.77570036E+01 -3.04802777E-01 -1.00000000E+00
  1 443 3.36955888E+00 9.88392339E+01 -3.04802777E-01 -1.00000000E+00
  1 444 3.36579114E+00 9.70457585E+01 -3.04802777E-01 -1.00000000E+00
  1 445 3.35979112E+00 1.03787892E+02 -3.04802777E-01 -1.00000000E+00
  1 446 3.35379110E+00 1.18624432E+02 -3.04802777E-01 -1.00000000E+00
  1 447 3.35283053E+00 1.18624432E+02 -3.04802777E-01 -1.00000000E+00
  1 448 3.35283053E+00 9.70457585E+01 -3.04802777E-01 -1.00000000E+00
  1 449 3.35283053E+00 8.40026943E+01 -3.04802777E-01 -1.00000000E+00
  1 450 3.35283053E+00 1.11151977E+02 -3.04802777E-01 -1.00000000E+00
  1 451 3.35283053E+00 1.11882298E+02 -3.04802777E-01 -1.00000000E+00
  1 452 3.33049067E+00 8.89513524E+01 -3.04802777E-01 -1.00000000E+00
  1 453 3.30109069E+00 1.11882298E+02 -3.04802777E-01 -1.00000000E+00
  1 454 3.28092383E+00 1.18624432E+02 -3.04802777E-01 -1.00000000E+00
  1 455 3.29352381E+00 8.89513524E+01 -3.04802777E-01 -1.00000000E+00
  1 456 3.30612379E+00 8.39950490E+01 -3.04802777E-01 -1.00000000E+00
  1 457 3.31015813E+00 9.82909344E+01 -3.04802777E-01 -1.00000000E+00
  1 458 3.31015813E+00 9.88392339E+01 -3.04802777E-01 -1.00000000E+00
  1 459 3.31015813E+00 8.89513524E+01 -3.04802777E-01 -1.00000000E+00
  1 460 3.31015813E+00 1.11882298E+02 -3.04802777E-01 -1.00000000E+00
  1 461 3.31015813E+00 1.11151977E+02 -3.04802777E-01 -1.00000000E+00
  1 462 3.30332078E+00 8.34113639E+01 -3.04802777E-01 -1.00000000E+00
  1 463 3.29192077E+00 8.41766943E+01 -3.04802777E-01 -1.00000000E+00
  1 464 3.27948122E+00 1.03290399E+02 -3.04802777E-01 -1.00000000E+00
  1 465 3.25068127E+00 9.43214713E+01 -3.04802777E-01 -1.00000000E+00
  1 466 3.22188132E+00 5.53513524E+01 -3.04802777E-01 -1.00000000E+00
  1 467 3.20804934E+00 4.42245315E+01 -3.04802777E-01 -1.00000000E+00
  1 474 3.29436609E+00 4.01877132E+01 -3.04802777E-01 -1.00000000E+00
  1 475 3.29076605E+00 8.26379816E+01 -3.04802777E-01 -1.00000000E+00
  1 476 3.28606207E+00 9.74688938E+01 -3.04802777E-01 -1.00000000E+00
  1 477 3.28006205E+00 1.08786192E+02 -3.04802777E-01 -1.00000000E+00
  1 478 3.27406203E+00 1.10975400E+02 -3.04802777E-01 -1.00000000E+00
  1 479 3.27358174E+00 9.10099413E+01 -3.04802777E-01 -1.00000000E+00
  1 480 3.27358174E+00 8.17739104E+01 -3.04802777E-01 -1.00000000E+00
  1 481 3.26218387E+00 8.46517258E+01 -3.04802777E-01 -1.00000000E+00
  1 482 3.23218386E+00 5.66349495E+01 -3.04802777E-01 -1.00000000E+00
  1 483 3.20218385E+00 6.46414862E+00 -3.04802777E-01 -1.00000000E+00
  1 484 3.19738107E+00 7.73093242E+00 -3.04802777E-01 -1.00000000E+00
  1 517 5.33906742E+00 6.39076121E+01 -3.04802777E-01 -1.00000000E+00
  1 518 4.91126738E+00 1.37038625E+02 -3.04802777E-01 -1.00000000E+00
  1 519 4.68024546E+00 1.18624432E+02 -3.04802777E-01 -1.00000000E+00
  1 520 4.68024546E+00 1.03787892E+02 -3.04802777E-01 -1.00000000E+00
  1 521 4.68024546E+00 8.40026943E+01 -3.04802777E-01 -1.00000000E+00
  1 522 4.66865413E+00 9.63154371E+01 -3.04802777E-01 -1.00000000E+00
  1 523 4.65605419E+00 1.11882298E+02 -3.04802777E-01 -1.00000000E+00
  1 524 4.66419847E+00 1.03787892E+02 -3.04802777E-01 -1.00000000E+00
  1 525 4.70619852E+00 1.03787892E+02 -3.04802777E-01 -1.00000000E+00
  1 526 4.74819857E+00 9.88392339E+01 -3.04802777E-01 -1.00000000E+00
  1 527 4.75492240E+00 9.63154371E+01 -3.04802777E-01 -1.00000000E+00
  1 528 4.75492240E+00 1.04409843E+02 -3.04802777E-01 -1.00000000E+00
  1 529 4.75492240E+00 9.88392339E+01 -3.04802777E-01 -1.00000000E+00
  1 530 4.75492240E+00 1.03787892E+02 -3.04802777E-01 -1.00000000E+00
  1 531 4.75492240E+00 1.18624432E+02 -3.04802777E-01 -1.00000000E+00
  1 532 4.74671586E+00 1.11141910E+02 -3.04802777E-01 -1.00000000E+00
  1 533 4.73591579E+00 9.82834591E+01 -3.04802777E-01 -1.00000000E+00
  1 534 4.78869288E+00 9.67891934E+01 -3.04802777E-01 -1.00000000E+00
  1 535 5.06709289E+00 6.44353621E+01 -3.04802777E-01 -1.00000000E+00
  1 536 5.34549290E+00 2.55845075E+01 -3.04802777E-01 -1.00000000E+00
  1 543 3.74602560E+00 1.93273310E+00 -3.04802777E-01 -1.00000000E+00
  1 544 3.74962564E+00 4.17779959E+01 -3.04802777E-01 -1.00000000E+00
  1 545 3.75322568E+00 8.75525249E+01 -3.04802777E-01 -1.00000000E+00
  1 546 3.90723812E+00 7.29744091E+01 -3.04802777E-01 -1.00000000E+00
  1 547 4.23783809E+00 3.42724908E+01 -3.04802777E-01 -1.00000000E+00
  1 548 4.56843806E+00 1.61603715E+00 -3.04802777E-01 -1.00000000E+00
  1 560 3.32539821E+00 8.35302685E+01 -3.04802777E-01 -1.00000000E+00
  1 561 3.32539821E+00 1.00222093E+02 -3.04802777E-01 -1.00000000E+00
  1 562 3.32054005E+00 1.12120842E+02 -3.04802777E-01 -1.00000000E+00
  1 563 3.30434003E+00 5.22247857E+01 -3.04802777E-01 -1.00000000E+00
  1 564 3.28814001E+00 1.44221537E+01 -3.04802777E-01 -1.00000000E+00
  1 565 3.28424961E+00 1.10561329E+01 -3.04802777E-01 -1.00000000E+00
  1 566 3.30044963E+00 5.28929380E+01 -3.04802777E-01 -1.00000000E+00
  1 567 3.31664965E+00 8.97042778E+01 -3.04802777E-01 -1.00000000E+00
  1 568 3.46311510E+00 7.13033424E+01 -3.04802777E-01 -1.00000000E+00
  1 569 3.76251509E+00 3.42724908E+01 -3.04802777E-01 -1.00000000E+00
  1 570 4.06191508E+00 1.61603715E+00 -3.04802777E-01 -1.00000000E+00
  1 582 3.57838431E+00 7.73093242E+00 -3.04802777E-01 -1.00000000E+00
  1 583 3.58078429E+00 3.45778591E+01 -3.04802777E-01 -1.00000000E+00
  1 584 3.58318427E+00 8.73800753E+01 -3.04802777E-01 -1.00000000E+00
  1 585 3.79671363E+00 7.43470992E+01 -3.04802777E-01 -1.00000000E+00
  1 586 4.25811363E+00 3.42724908E+01 -3.04802777E-01 -1.00000000E+00
  1 587 4.71951362E+00 1.61603715E+00 -3.04802777E-01 -1.00000000E+00
  1 588 4.75644698E+00 1.53506791E+00 -3.04802777E-01 -1.00000000E+00
  1 589 4.54524698E+00 4.01877132E+01 -3.04802777E-01 -1.00000000E+00
  1 590 4.33404698E+00 8.28240842E+01 -3.04802777E-01 -1.00000000E+00
  1 591 4.21999443E+00 9.76760670E+01 -3.04802777E-01 -1.00000000E+00
  1 592 4.21999443E+00 1.16957360E+02 -3.04802777E-01 -1.00000000E+00
  1 593 4.21999443E+00 1.35184506E+02 -3.04802777E-01 -1.00000000E+00
  1 594 4.06654591E+00 9.60144756E+01 -3.04802777E-01 -1.00000000E+00
  1 595 3.89974595E+00 8.39950490E+01 -3.04802777E-01 -1.00000000E+00
  1 596 3.79631865E+00 9.82909344E+01 -3.04802777E-01 -1.00000000E+00
  1 597 3.79631865E+00 9.88392339E+01 -3.04802777E-01 -1.00000000E+00
  1 598 3.79631865E+00 8.89513524E+01 -3.04802777E-01 -1.00000000E+00
  1 599 3.82403559E+00 1.03787892E+02 -3.04802777E-01 -1.00000000E+00
  1 600 3.85703552E+00 1.18624432E+02 -3.04802777E-01 -1.00000000E+00
  1 601 3.86970321E+00 1.18624432E+02 -3.04802777E-01 -1.00000000E+00
  1 602 3.83490324E+00 1.03787892E+02 -3.04802777E-01 -1.00000000E+00
  1 603 3.80010327E+00 1.03787892E+02 -3.04802777E-01 -1.00000000E+00
  1 604 3.79174650E+00 1.18624432E+02 -3.04802777E-01 -1.00000000E+00
  1 605 3.79174650E+00 1.18624432E+02 -3.04802777E-01 -1.00000000E+00
  1 606 3.78501941E+00 9.70457585E+01 -3.04802777E-01 -1.00000000E+00
  1 607 3.75441941E+00 8.89513524E+01 -3.04802777E-01 -1.00000000E+00
  1 608 3.72381942E+00 1.18624432E+02 -3.04802777E-01 -1.00000000E+00
  1 609 3.71402180E+00 1.18624432E+02 -3.04802777E-01 -1.00000000E+00
  1 610 3.71402180E+00 1.03787892E+02 -3.04802777E-01 -1.00000000E+00
  1 611 3.71402180E+00 9.70457585E+01 -3.04802777E-01 -1.00000000E+00
  1 612 3.71402180E+00 1.03787892E+02 -3.04802777E-01 -1.00000000E+00
  1 613 3.71402180E+00 1.18624432E+02 -3.04802777E-01 -1.00000000E+00
  1 614 3.71006332E+00 9.63224925E+01 -3.04802777E-01 -1.00000000E+00
  1 615 3.70346331E+00 8.41766943E+01 -3.04802777E-01 -1.00000000E+00
  1 616 3.70227638E+00 1.04714137E+02 -3.04802777E-01 -1.00000000E+00
  1 617 3.78627635E+00 1.26238704E+02 -3.04802777E-01 -1.00000000E+00
  1 618 3.87027632E+00 5.66526565E+01 -3.04802777E-01 -1.00000000E+00
  1 843 4.64380698E+00 1.28983044E+01 -3.04802777E-01 -1.00000000E+00
  1 849 3.23597017E+00 4.70460043E+00 -3.04802777E-01 -1.00000000E+00
  1 851 3.70666516E+00 4.70460043E+00 -3.04802777E-01 -1.00000000E+00
  1 852 3.74794562E+00 9.36604386E+00 -3.04802777E-01 -1.00000000E+00
  1 853 3.29604611E+00 1.28983044E+01 -3.04802777E-01 -1.00000000E+00
  1 857 4.70012698E+00 4.80120420E+00 -3.04802777E-01 -1.00000000E+00
  1 861 3.74698561E+00 3.59929355E+00 -3.04802777E-01 -1.00000000E+00
  1 862 3.29700612E+00 4.80120420E+00 -3.04802777E-01 -1.00000000E+00
  1 864 4.72828698E+00 2.26175692E+00 -3.04802777E-01 -1.00000000E+00
  1 868 3.74650561E+00 2.26175692E+00 -3.04802777E-01 -1.00000000E+00
  1 869 3.29748612E+00 2.26175692E+00 -3.04802777E-01 -1.00000000E+00
  1 873 4.48881363E+00 1.41587374E+01 -3.04802777E-01 -1.00000000E+00
  1 875 3.91221509E+00 1.41587374E+01 -3.04802777E-01 -1.00000000E+00
  1 877 4.40313808E+00 1.41587374E+01 -3.04802777E-01 -1.00000000E+00
  1 880 3.68046208E+00 5.46960027E+00 -3.04802777E-01 -1.00000000E+00
  1 886 3.22817902E+00 5.46960027E+00 -3.04802777E-01 -1.00000000E+00
  1 887 4.60416363E+00 3.93014267E+00 -3.04802777E-01 -1.00000000E+00
  1 889 3.98706509E+00 3.93014267E+00 -3.04802777E-01 -1.00000000E+00
  1 891 4.48578807E+00 3.93014267E+00 -3.04802777E-01 -1.00000000E+00
  1 894 3.70599153E+00 3.08619136E+00 -3.04802777E-01 -1.00000000E+00
  1 900 3.23645703E+00 3.08619136E+00 -3.04802777E-01 -1.00000000E+00
  1 901 4.61321222E+00 5.11732699E+00 -3.04802777E-01 -1.00000000E+00
  1 902 3.99850599E+00 5.11732699E+00 -3.04802777E-01 -1.00000000E+00
  1 903 4.46685711E+00 5.11732699E+00 -3.04802777E-01 -1.00000000E+00
  1 905 3.27816160E+00 5.11732699E+00 -3.04802777E-01 -1.00000000E+00
  1 906 3.46193866E+00 5.11732699E+00 -3.04802777E-01 -1.00000000E+00
  1 908 3.70046194E+00 6.87221654E+00 -3.04802777E-01 -1.00000000E+00
  1 909 3.23339826E+00 6.87221654E+00 -3.04802777E-01 -1.00000000E+00
  1 910 4.66183863E+00 2.41837227E+00 -3.04802777E-01 -1.00000000E+00
  1 913 4.02449008E+00 2.41837227E+00 -3.04802777E-01 -1.00000000E+00
  1 916 4.52711306E+00 2.41837227E+00 -3.04802777E-01 -1.00000000E+00
  1 920 3.68529841E+00 1.18702409E+01 -3.04802777E-01 -1.00000000E+00
  1 928 3.23050480E+00 1.18702409E+01 -3.04802777E-01 -1.00000000E+00
  1 929 3.57966429E+00 1.29935507E+01 -3.04802777E-01 -1.00000000E+00
  1 930 3.51863819E+00 1.88184017E+01 -3.04802777E-01 -1.00000000E+00
  1 931 3.17458103E+00 1.88184017E+01 -3.04802777E-01 -1.00000000E+00
  1 933 3.62799750E+00 1.67594596E+01 -3.04802777E-01 -1.00000000E+00
  1 934 3.70595734E+00 5.52337477E+00 -3.04802777E-01 -1.00000000E+00
  1 935 3.21332484E+00 1.69664948E+01 -3.04802777E-01 -1.00000000E+00
  1 936 3.23730947E+00 5.52337477E+00 -3.04802777E-01 -1.00000000E+00
  1 947 3.57902430E+00 9.04702769E+00 -3.04802777E-01 -1.00000000E+00
  1 949 3.60915963E+00 2.47324548E+01 -3.04802777E-01 -1.00000000E+00
  1 950 3.20596469E+00 2.47324548E+01 -3.04802777E-01 -1.00000000E+00
  1 951 3.59672321E+00 2.15924953E+01 -3.04802777E-01 -1.00000000E+00
  1 952 3.66209947E+00 2.47714106E+01 -3.04802777E-01 -1.00000000E+00
  1 953 3.20193734E+00 3.30875010E+01 -3.04802777E-01 -1.00000000E+00
  1 954 3.22550424E+00 2.19236873E+01 -3.04802777E-01 -1.00000000E+00
  1 955 3.29288962E+00 1.26982684E+01 -3.04802777E-01 -1.00000000E+00
  1 958 4.50417159E+00 7.37812132E+00 -3.04802777E-01 -1.00000000E+00
  1 959 3.92776026E+00 7.37812132E+00 -3.04802777E-01 -1.00000000E+00
  1 960 4.38868152E+00 7.37812132E+00 -3.04802777E-01 -1.00000000E+00
  1 962 3.27656946E+00 7.37812132E+00 -3.04802777E-01 -1.00000000E+00
  1 963 3.44093539E+00 7.37812132E+00 -3.04802777E-01 -1.00000000E+00
  1 965 3.23970846E+00 4.13248972E+01 -3.04802777E-01 -1.00000000E+00
  1 967 3.47886448E+00 2.18784011E+01 -3.04802777E-01 -1.00000000E+00
  1 968 3.21718385E+00 1.57205707E+01 -3.04802777E-01 -1.00000000E+00
  1 969 3.15940307E+00 2.18784011E+01 -3.04802777E-01 -1.00000000E+00
  1 970 3.28856962E+00 8.99708480E+00 -3.04802777E-01 -1.00000000E+00
  1 972 4.31113020E+00 2.56512013E+01 -3.04802777E-01 -1.00000000E+00
  1 973 4.49226837E+00 2.23182358E+01 -3.04802777E-01 -1.00000000E+00
  1 974 3.80513589E+00 2.56512013E+01 -3.04802777E-01 -1.00000000E+00
  1 975 3.92677508E+00 2.23182358E+01 -3.04802777E-01 -1.00000000E+00
  1 976 4.23832130E+00 2.56512013E+01 -3.04802777E-01 -1.00000000E+00
  1 977 4.34007570E+00 2.23182358E+01 -3.04802777E-01 -1.00000000E+00
  1 980 3.26539413E+00 2.56512013E+01 -3.04802777E-01 -1.00000000E+00
  1 981 3.26421114E+00 2.23182358E+01 -3.04802777E-01 -1.00000000E+00
  1 982 3.39921942E+00 2.56512013E+01 -3.04802777E-01 -1.00000000E+00
  1 983 3.42345768E+00 2.23182358E+01 -3.04802777E-01 -1.00000000E+00
  1 987 3.51751052E+00 1.19375609E+01 -3.04802777E-01 -1.00000000E+00
  1 989 3.18338288E+00 1.19375609E+01 -3.04802777E-01 -1.00000000E+00
  1 991 3.23478790E+00 2.49200194E+01 -3.04802777E-01 -1.00000000E+00
  1 994 3.25875875E+00 1.19375609E+01 -3.04802777E-01 -1.00000000E+00
  1 1002 3.48606901E+00 4.74809638E+01 -3.04802777E-01 -1.00000000E+00
  1 1003 3.50933423E+00 2.74888662E+01 -3.04802777E-01 -1.00000000E+00
  1 1004 3.20968385E+00 9.67348908E+00 -3.04802777E-01 -1.00000000E+00
  1 1005 3.17407939E+00 4.74809638E+01 -3.04802777E-01 -1.00000000E+00
  1 1006 3.16125702E+00 2.74888662E+01 -3.04802777E-01 -1.00000000E+00
  1 1014 3.49697613E+00 3.14478350E+01 -3.04802777E-01 -1.00000000E+00
  1 1017 3.39911329E+00 6.76331504E+01 -3.04802777E-01 -1.00000000E+00
  1 1018 3.52045234E+00 1.93891942E+01 -3.04802777E-01 -1.00000000E+00
  1 1019 3.13898508E+00 6.76331504E+01 -3.04802777E-01 -1.00000000E+00
  1 1020 3.19524979E+00 1.93891942E+01 -3.04802777E-01 -1.00000000E+00
  1 1021 3.20031953E+00 6.28841346E+01 -3.04802777E-01 -1.00000000E+00
  1 1022 3.26576482E+00 1.93891942E+01 -3.04802777E-01 -1.00000000E+00
  1 1028 3.46446254E+00 7.92047162E+01 -3.04802777E-01 -1.00000000E+00
  1 1029 3.18963567E+00 7.92047162E+01 -3.04802777E-01 -1.00000000E+00
  1 1030 3.24606579E+00 7.92047162E+01 -3.04802777E-01 -1.00000000E+00
  1 1034 5.53870744E+00 3.15865213E+01 -3.04802777E-01 -1.00000000E+00
  1 1039 3.56389347E+00 4.50415247E+01 -3.04802777E-01 -1.00000000E+00
  1 1042 3.19624257E+00 4.50415247E+01 -3.04802777E-01 -1.00000000E+00
  1 1043 3.57507453E+00 6.66843299E+01 -3.04802777E-01 -1.00000000E+00
  1 1045 3.29624002E+00 3.11053830E+01 -3.04802777E-01 -1.00000000E+00
  1 1046 3.94961733E+00 6.07215491E+01 -3.04802777E-01 -1.00000000E+00
  1 1047 3.57878388E+00 6.07215491E+01 -3.04802777E-01 -1.00000000E+00
  1 1048 3.94172799E+00 6.08044428E+01 -3.04802777E-01 -1.00000000E+00
  1 1050 3.23397886E+00 6.11621199E+01 -3.04802777E-01 -1.00000000E+00
  1 1051 3.31540894E+00 6.07215491E+01 -3.04802777E-01 -1.00000000E+00
  1 1053 3.24097723E+00 3.79147992E+01 -3.04802777E-01 -1.00000000E+00
  1 1054 3.37078868E+00 9.89298193E+01 -3.04802777E-01 -1.00000000E+00
  1 1055 3.10454424E+00 8.83496183E+01 -3.04802777E-01 -1.00000000E+00
  1 1056 3.35196217E+00 8.99490971E+01 -3.04802777E-01 -1.00000000E+00
  1 1057 3.09293267E+00 7.85347625E+01 -3.04802777E-01 -1.00000000E+00
  1 1074 3.14129305E+00 7.38631101E+01 -3.04802777E-01 -1.00000000E+00
  1 1075 3.19245731E+00 7.42534287E+01 -3.04802777E-01 -1.00000000E+00
  1 1083 4.69740013E+00 8.86723739E+01 -3.04802777E-01 -1.00000000E+00
  1 1084 3.37789270E+00 6.63141070E+01 -3.04802777E-01 -1.00000000E+00
  1 1087 4.90346477E+00 9.03385818E+01 -3.04802777E-01 -1.00000000E+00
  1 1090 3.55337386E+00 3.20941409E+01 -3.04802777E-01 -1.00000000E+00
  1 1091 3.19100272E+00 3.20941409E+01 -3.04802777E-01 -1.00000000E+00
  1 1092 3.42956253E+00 6.38314393E+01 -3.04802777E-01 -1.00000000E+00
  1 1093 3.20349931E+00 1.01684197E+02 -3.04802777E-01 -1.00000000E+00
  1 1095 3.14501681E+00 8.80431794E+01 -3.04802777E-01 -1.00000000E+00
  1 1096 3.13680683E+00 7.85646340E+01 -3.04802777E-01 -1.00000000E+00
  1 1103 3.64784832E+00 7.25169880E+01 -3.04802777E-01 -1.00000000E+00
  1 1106 3.12893687E+00 7.20538124E+01 -3.04802777E-01 -1.00000000E+00
  1 1107 3.17795055E+00 4.08833704E+01 -3.04802777E-01 -1.00000000E+00
  1 1121 3.32248953E+00 8.81429113E+01 -3.04802777E-01 -1.00000000E+00
  1 1122 3.12261389E+00 9.41169647E+01 -3.04802777E-01 -1.00000000E+00
  1 1123 3.47439307E+00 3.53547513E+01 -3.04802777E-01 -1.00000000E+00
  1 1124 3.14791461E+00 9.74435395E+01 -3.04802777E-01 -1.00000000E+00
  1 1131 3.17723926E+00 4.56652038E+01 -3.04802777E-01 -1.00000000E+00
  1 1138 3.36601797E+00 6.86754889E+01 -3.04802777E-01 -1.00000000E+00
  1 1139 3.13196279E+00 9.08687425E+01 -3.04802777E-01 -1.00000000E+00
  1 1168 5.20629289E+00 3.78592176E+01 -3.04802777E-01 -1.00000000E+00
  1 1172 4.09669584E+00 7.76109604E+01 -3.04802777E-01 -1.00000000E+00
  1 1173 3.68799708E+00 7.76109604E+01 -3.04802777E-01 -1.00000000E+00
  1 1174 3.96459686E+00 7.38070163E+01 -3.04802777E-01 -1.00000000E+00
  1 1176 3.21176073E+00 7.90243037E+01 -3.04802777E-01 -1.00000000E+00
  1 1177 3.31244692E+00 7.76109604E+01 -3.04802777E-01 -1.00000000E+00
  1 1188 3.10542751E+00 1.00958579E+02 -3.04802777E-01 -1.00000000E+00
  1 1192 3.18671137E+00 9.96630527E+01 -3.04802777E-01 -1.00000000E+00
  1 1194 3.20187780E+00 6.70824328E+01 -3.04802777E-01 -1.00000000E+00
  1 1195 3.51083202E+00 4.13044366E+01 -3.04802777E-01 -1.00000000E+00
  1 1196 3.17368835E+00 7.81244092E+01 -3.04802777E-01 -1.00000000E+00
  1 1272 3.09057480E+00 1.03283833E+02 -3.04802777E-01 -1.00000000E+00
  1 1273 3.44809101E+00 5.19175578E+01 -3.04802777E-01 -1.00000000E+00
  1 1326 3.27452326E+00 9.10522698E+01 -3.04802777E-01 -1.00000000E+00
  1 1375 3.58948564E+00 6.70907832E+01 -3.04802777E-01 -1.00000000E+00
  1 1378 3.20725761E+00 6.70907832E+01 -3.04802777E-01 -1.00000000E+00
  1 1393 3.19135475E+00 9.88013902E+01 -3.04802777E-01 -1.00000000E+00
  1 1394 3.07984503E+00 9.67465925E+01 -3.04802777E-01 -1.00000000E+00
  1 1422 3.31470388E+00 8.09480807E+01 -3.04802777E-01 -1.00000000E+00
  1 1462 3.03241954E+00 1.38156045E+02 -3.04802777E-01 -1.00000000E+00
  1 1480 3.02978340E+00 1.25972915E+02 -3.04802777E-01 -1.00000000E+00
  1 1552 3.30150485E+00 1.19058245E+02 -3.04802777E-01 -1.00000000E+00
  1 1553 3.12831460E+00 1.34860297E+02 -3.04802777E-01 -1.00000000E+00
  1 1554 3.13378562E+00 1.32988510E+02 -3.04802777E-01 -1.00000000E+00
  1 1555 3.05444910E+00 1.32988510E+02 -3.04802777E-01 -1.00000000E+00
  1 1556 3.07707638E+00 1.13022857E+02 -3.04802777E-01 -1.00000000E+00
  1 1557 3.46368012E+00 8.76861482E+01 -3.04802777E-01 -1.00000000E+00
  1 1558 3.34968738E+00 1.04728105E+02 -3.04802777E-01 -1.00000000E+00
  1 1559 3.20340074E+00 1.04728105E+02 -3.04802777E-01 -1.00000000E+00
  1 1561 3.17370185E+00 1.04728105E+02 -3.04802777E-01 -1.00000000E+00
  1 1564 3.12534094E+00 1.09353257E+02 -3.04802777E-01 -1.00000000E+00
  1 1598 3.52135767E+00 1.25268594E+02 -3.04802777E-01 -1.00000000E+00
  1 1601 3.19308850E+00 8.27198103E+01 -3.04802777E-01 -1.00000000E+00
  1 1606 3.14870052E+00 9.60493318E+01 -3.04802777E-01 -1.00000000E+00
  1 1607 3.02877855E+00 1.16875835E+02 -3.04802777E-01 -1.00000000E+00
  1 1886 3.60342340E+00 7.92642554E+01 -3.04802777E-01 -1.00000000E+00
  1 1887 3.28747697E+00 9.01642196E+01 -3.04802777E-01 -1.00000000E+00
  1 1888 3.64457788E+00 8.21703386E+01 -3.04802777E-01 -1.00000000E+00
  1 1889 3.40499891E+00 8.21703386E+01 -3.04802777E-01 -1.00000000E+00
  1 1891 3.21493500E+00 8.21703386E+01 -3.04802777E-01 -1.00000000E+00
  1 2497 3.27407407E+00 1.19856592E+02 -3.04802777E-01 -1.00000000E+00
  1 2502 3.53293801E+00 1.14800752E+02 -3.04802777E-01 -1.00000000E+00
  1 2503 3.54109304E+00 1.38529368E+02 -3.04802777E-01 -1.00000000E+00
  1 2505 3.11524329E+00 1.25662753E+02 -3.04802777E-01 -1.00000000E+00
  1 2507 3.11294138E+00 1.31348814E+02 -3.04802777E-01 -1.00000000E+00
  1 2508 3.20122406E+00 1.11455382E+02 -3.04802777E-01 -1.00000000E+00
  1 2510 3.12260920E+00 1.19856592E+02 -3.04802777E-01 -1.00000000E+00
  1 2512 4.35710950E+00 1.05766426E+02 -3.04802777E-01 -1.00000000E+00
  1 2513 3.26546552E+00 8.52976308E+01 -3.04802777E-01 -1.00000000E+00
  1 2515 4.07180646E+00 8.97229172E+01 -3.04802777E-01 -1.00000000E+00
  1 2517 3.13181678E+00 1.41485781E+02 -3.04802777E-01 -1.00000000E+00
  1 2518 3.10234520E+00 1.12129562E+02 -3.04802777E-01 -1.00000000E+00
  1 2519 3.45392979E+00 1.02145878E+02 -3.04802777E-01 -1.00000000E+00
  1 2525 3.11386215E+00 1.14664337E+02 -3.04802777E-01 -1.00000000E+00
  1 2526 3.23956262E+00 1.31958997E+02 -3.04802777E-01 -1.00000000E+00
  1 2528 3.11616389E+00 1.34565005E+02 -3.04802777E-01 -1.00000000E+00
  1 2532 3.14010363E+00 1.41366699E+02 -3.04802777E-01 -1.00000000E+00
  1 2533 3.03353060E+00 1.19571425E+02 -3.04802777E-01 -1.00000000E+00
  1 2534 3.56365168E+00 1.25232426E+02 -3.04802777E-01 -1.00000000E+00
  1 2535 3.28586117E+00 1.25360615E+02 -3.04802777E-01 -1.00000000E+00
  1 2536 3.38018713E+00 9.84923515E+01 -3.04802777E-01 -1.00000000E+00
  1 2537 3.09397011E+00 9.08074884E+01 -3.04802777E-01 -1.00000000E+00
  1 2538 3.18768563E+00 1.12417384E+02 -3.04802777E-01 -1.00000000E+00
  1 2539 3.40205952E+00 1.25028529E+02 -3.04802777E-01 -1.00000000E+00
  1 2540 3.15961657E+00 1.07324210E+02 -3.04802777E-01 -1.00000000E+00
  1 2541 3.11616389E+00 1.52929778E+02 -3.04802777E-01 -1.00000000E+00
  1 2542 3.03216998E+00 1.15780560E+02 -3.04802777E-01 -1.00000000E+00
  1 2543 3.08427711E+00 1.00855940E+02 -3.04802777E-01 -1.00000000E+00
  1 2544 3.21008131E+00 1.41812078E+02 -3.04802777E-01 -1.00000000E+00
  1 2545 2.96426887E+00 1.27955233E+02 -3.04802777E-01 -1.00000000E+00
  1 2558 3.27942666E+00 1.25132310E+02 -3.04802777E-01 -1.00000000E+00
  1 2562 3.11443448E+00 1.06326526E+02 -3.04802777E-01 -1.00000000E+00
  1 2564 3.07488580E+00 1.30612697E+02 -3.04802777E-01 -1.00000000E+00
  1 2565 3.18435355E+00 1.15554567E+02 -3.04802777E-01 -1.00000000E+00
  1 2566 3.24921355E+00 1.36441878E+02 -3.04802777E-01 -1.00000000E+00
  1 2567 3.24921355E+00 1.25840322E+02 -3.04802777E-01 -1.00000000E+00
  1 2572 3.30169678E+00 1.29132810E+02 -3.04802777E-01 -1.00000000E+00
  1 2573 3.59675209E+00 1.25873038E+02 -3.04802777E-01 -1.00000000E+00
  1 2574 3.20051081E+00 9.30080579E+01 -3.04802777E-01 -1.00000000E+00
  1 2575 3.13909157E+00 1.10008395E+02 -3.04802777E-01 -1.00000000E+00
  1 2576 3.71586378E+00 1.10492018E+02 -3.04802777E-01 -1.00000000E+00
  1 2577 3.09631199E+00 1.07622049E+02 -3.04802777E-01 -1.00000000E+00
  1 2578 3.46443315E+00 1.09767618E+02 -3.04802777E-01 -1.00000000E+00
  1 2579 3.08424095E+00 1.10008395E+02 -3.04802777E-01 -1.00000000E+00
  1 2580 3.17848536E+00 1.10492018E+02 -3.04802777E-01 -1.00000000E+00
  1 2775 3.47287701E+00 1.12778243E+02 -3.04802777E-01 -1.00000000E+00
  1 2776 3.12721301E+00 1.13247651E+02 -3.04802777E-01 -1.00000000E+00
  1 2777 3.27269289E+00 1.19333032E+02 -3.04802777E-01 -1.00000000E+00
  1 2778 3.27269289E+00 1.20134105E+02 -3.04802777E-01 -1.00000000E+00
  1 2779 3.51386319E+00 1.31196157E+02 -3.04802777E-01 -1.00000000E+00
  1 2788 3.99352092E+00 1.12778243E+02 -3.04802777E-01 -1.00000000E+00
  1 2789 3.97067658E+00 1.12778243E+02 -3.04802777E-01 -1.00000000E+00
  1 2790 3.18267985E+00 1.19856592E+02 -3.04802777E-01 -1.00000000E+00
  1 2791 3.99185631E+00 1.18841992E+02 -3.04802777E-01 -1.00000000E+00
  1 2792 3.32793840E+00 1.31452014E+02 -3.04802777E-01 -1.00000000E+00
  1 2793 3.97473441E+00 1.16951312E+02 -3.04802777E-01 -1.00000000E+00
  1 2797 3.14010363E+00 1.19856592E+02 -3.04802777E-01 -1.00000000E+00
  1 2798 3.11294138E+00 1.51718917E+02 -3.04802777E-01 -1.00000000E+00
  1 2799 3.17435781E+00 1.15449194E+02 -3.04802777E-01 -1.00000000E+00
  1 2802 3.14654895E+00 1.23225743E+02 -3.04802777E-01 -1.00000000E+00
  1 2803 3.17003142E+00 1.18728407E+02 -3.04802777E-01 -1.00000000E+00
  1 2804 3.17003142E+00 1.37425761E+02 -3.04802777E-01 -1.00000000E+00
  1 2806 3.17958066E+00 1.06466036E+02 -3.04802777E-01 -1.00000000E+00
  1 2807 3.11386215E+00 1.45858280E+02 -3.04802777E-01 -1.00000000E+00
  1 2808 3.17512394E+00 1.37397155E+02 -3.04802777E-01 -1.00000000E+00
  1 2813 3.18820200E+00 1.12778243E+02 -3.04802777E-01 -1.00000000E+00
  1 2814 3.11662429E+00 1.24577312E+02 -3.04802777E-01 -1.00000000E+00
  1 2815 3.12260920E+00 1.22328976E+02 -3.04802777E-01 -1.00000000E+00
  1 2816 3.18820200E+00 1.31196157E+02 -3.04802777E-01 -1.00000000E+00
  1 2818 4.15789682E+00 8.74522607E+01 -3.04802777E-01 -1.00000000E+00
  1 2819 3.18964771E+00 8.85832358E+01 -3.04802777E-01 -1.00000000E+00
  1 2820 3.17408894E+00 1.07892504E+02 -3.04802777E-01 -1.00000000E+00
  1 2822 3.65662828E+00 1.14264151E+02 -3.04802777E-01 -1.00000000E+00
  1 2824 3.20550746E+00 1.23198972E+02 -3.04802777E-01 -1.00000000E+00
  1 2825 3.18543348E+00 1.12554712E+02 -3.04802777E-01 -1.00000000E+00
  1 2826 2.97010418E+00 1.40397209E+02 -3.04802777E-01 -1.00000000E+00
  1 2827 3.47061066E+00 9.94457950E+01 -3.04802777E-01 -1.00000000E+00
  1 2837 3.17176199E+00 1.14890516E+02 -3.04802777E-01 -1.00000000E+00
  1 2838 3.11524329E+00 1.40561216E+02 -3.04802777E-01 -1.00000000E+00
  1 2839 3.17414169E+00 1.35421336E+02 -3.04802777E-01 -1.00000000E+00
  1 2840 3.49387611E+00 1.16951312E+02 -3.04802777E-01 -1.00000000E+00
  1 2841 3.13181678E+00 1.32424466E+02 -3.04802777E-01 -1.00000000E+00
  1 2842 3.27600612E+00 1.31532871E+02 -3.04802777E-01 -1.00000000E+00
  1 2843 3.17608817E+00 1.24932690E+02 -3.04802777E-01 -1.00000000E+00
  1 2847 3.22108242E+00 1.23232429E+02 -3.04802777E-01 -1.00000000E+00
  1 2848 3.12578186E+00 1.21631135E+02 -3.04802777E-01 -1.00000000E+00
  1 2849 3.22108242E+00 1.22780660E+02 -3.04802777E-01 -1.00000000E+00
  1 2850 4.01713293E+00 1.12778243E+02 -3.04802777E-01 -1.00000000E+00
  1 2851 3.40045640E+00 9.41547135E+01 -3.04802777E-01 -1.00000000E+00
  1 2852 2.95420234E+00 1.24441995E+02 -3.04802777E-01 -1.00000000E+00
  1 2853 3.19620793E+00 1.14731239E+02 -3.04802777E-01 -1.00000000E+00
  1 2854 3.71342295E+00 1.12778243E+02 -3.04802777E-01 -1.00000000E+00
  1 2855 3.17608817E+00 1.26112038E+02 -3.04802777E-01 -1.00000000E+00
  1 2856 3.03033517E+00 1.39253862E+02 -3.04802777E-01 -1.00000000E+00
  1 2857 3.01684542E+00 1.00351189E+02 -3.04802777E-01 -1.00000000E+00
  1 2867 3.42615219E+00 1.23215395E+02 -3.04802777E-01 -1.00000000E+00
  1 2868 3.24921355E+00 1.47206712E+02 -3.04802777E-01 -1.00000000E+00
  1 2869 3.42615219E+00 1.35512311E+02 -3.04802777E-01 -1.00000000E+00
  1 2870 3.42615219E+00 1.15449194E+02 -3.04802777E-01 -1.00000000E+00
  1 2875 3.52479332E+00 1.12778243E+02 -3.04802777E-01 -1.00000000E+00
  1 2876 3.02301737E+00 1.10830317E+02 -3.04802777E-01 -1.00000000E+00
  1 2877 3.04215796E+00 1.27391890E+02 -3.04802777E-01 -1.00000000E+00
  1 2878 3.80795497E+00 1.05968331E+02 -3.04802777E-01 -1.00000000E+00
  1 2879 3.44863832E+00 1.05257037E+02 -3.04802777E-01 -1.00000000E+00
  1 2880 3.03172280E+00 1.33528722E+02 -3.04802777E-01 -1.00000000E+00
  1 2881 3.19428158E+00 1.05968331E+02 -3.04802777E-01 -1.00000000E+00
  1 2966 3.53397398E+00 9.27662264E+01 -3.04802777E-01 -1.00000000E+00
  1 2967 3.12721301E+00 1.44796283E+02 -3.04802777E-01 -1.00000000E+00
  1 2968 3.19685476E+00 1.18903214E+02 -3.04802777E-01 -1.00000000E+00
  1 2969 3.19685476E+00 1.12778243E+02 -3.04802777E-01 -1.00000000E+00
  1 2970 3.27269289E+00 1.40561216E+02 -3.04802777E-01 -1.00000000E+00
  1 2971 3.47028113E+00 1.35421336E+02 -3.04802777E-01 -1.00000000E+00
  1 2972 3.47028113E+00 1.27151841E+02 -3.04802777E-01 -1.00000000E+00
  1 2977 4.15649873E+00 9.27662264E+01 -3.04802777E-01 -1.00000000E+00
  1 2978 4.10800293E+00 1.10819980E+02 -3.04802777E-01 -1.00000000E+00
  1 2979 3.32793840E+00 1.19207070E+02 -3.04802777E-01 -1.00000000E+00
  1 2980 3.47313835E+00 1.31196157E+02 -3.04802777E-01 -1.00000000E+00
  1 2981 3.19891508E+00 1.12778243E+02 -3.04802777E-01 -1.00000000E+00
  1 2982 3.57411389E+00 1.24417057E+02 -3.04802777E-01 -1.00000000E+00
  1 2984 3.22445559E+00 1.12778243E+02 -3.04802777E-01 -1.00000000E+00
  1 2985 3.14010363E+00 1.32000574E+02 -3.04802777E-01 -1.00000000E+00
  1 2986 3.22108242E+00 1.31196157E+02 -3.04802777E-01 -1.00000000E+00
  1 2987 3.17286738E+00 1.35435289E+02 -3.04802777E-01 -1.00000000E+00
  1 2988 3.19252514E+00 1.10915360E+02 -3.04802777E-01 -1.00000000E+00
  1 2991 3.23319625E+00 1.26112038E+02 -3.04802777E-01 -1.00000000E+00
  1 2992 3.07929375E+00 1.48752724E+02 -3.04802777E-01 -1.00000000E+00
  1 2999 3.20735166E+00 9.27662264E+01 -3.04802777E-01 -1.00000000E+00
  1 3000 3.17695349E+00 1.16951312E+02 -3.04802777E-01 -1.00000000E+00
  1 3001 3.17851440E+00 1.30959706E+02 -3.04802777E-01 -1.00000000E+00
  1 3002 4.16869984E+00 1.02943188E+02 -3.04802777E-01 -1.00000000E+00
  1 3003 3.38490075E+00 1.44846973E+02 -3.04802777E-01 -1.00000000E+00
  1 3004 3.13622663E+00 1.24681817E+02 -3.04802777E-01 -1.00000000E+00
  1 3005 3.24237653E+00 1.14658238E+02 -3.04802777E-01 -1.00000000E+00
  1 3007 3.15027053E+00 1.36881854E+02 -3.04802777E-01 -1.00000000E+00
  1 3009 3.22815440E+00 1.10915360E+02 -3.04802777E-01 -1.00000000E+00
  1 3010 3.21587185E+00 9.27662264E+01 -3.04802777E-01 -1.00000000E+00
  1 3011 3.48526090E+00 1.02035120E+02 -3.04802777E-01 -1.00000000E+00
  1 3012 3.09612868E+00 1.03094706E+02 -3.04802777E-01 -1.00000000E+00
  1 3019 3.18955602E+00 1.10915360E+02 -3.04802777E-01 -1.00000000E+00
  1 3020 3.59335631E+00 1.10819980E+02 -3.04802777E-01 -1.00000000E+00
  1 3021 3.19864159E+00 9.55793936E+01 -3.04802777E-01 -1.00000000E+00
  1 3026 3.24596917E+00 1.10915360E+02 -3.04802777E-01 -1.00000000E+00
  1 3027 3.18775398E+00 1.16951312E+02 -3.04802777E-01 -1.00000000E+00
  1 3028 3.23511034E+00 1.10915360E+02 -3.04802777E-01 -1.00000000E+00