BEGIN options
  PRINT_OPTION  all
  COMPLEXITY  complex
END options

BEGIN nonlinear
  OUTER_DVCLOSE       0.00100000
  OUTER_MAXIMUM  500
END nonlinear

BEGIN linear
  INNER_MAXIMUM  100
  INNER_DVCLOSE  1.00000000E-06
  LINEAR_ACCELERATION  bicgstab
END linear

