BEGIN options
  SAVE_FLOWS
  NEWTON  UNDER_RELAXATION
END options

BEGIN packages
  DISV6  sv.disv  disv
  IC6  sv.ic  ic
  NPF6  sv.npf  npf
  STO6  sv.sto  sto
  RCH6  sv.rcha  rch-1
  EVT6  sv.evta  evta_0
  WEL6  sv.wel  wel-1
  DRN6  sv.drn  drn-1
  SFR6  sv.sfr  sfr-1
  LAK6  sv.lak  lak-1
  MVR6  sv.mvr  mvr-1
  OC6  sv.oc  oc
  OBS6  sv.gwf.obs  gwf-obs
END packages

