BEGIN options
  XT3D
  SAVE_SPECIFIC_DISCHARGE
  SAVE_SATURATION
END options

BEGIN griddata
  icelltype  LAYERED
    CONSTANT  1
    CONSTANT  0
    CONSTANT  0
    CONSTANT  0
    CONSTANT  0
  k  LAYERED
    INTERNAL  FACTOR  1.0
          60.55821581      60.55821581      41.70311600      41.70311600      31.72692110      42.15117608      42.15117608      53.12712409      54.87974006      54.87974006      52.17613943      60.67099283      60.67099283      41.95305428      36.45441217      36.45441217      33.77519576      23.39056513      23.39056513      23.12538672
          37.44502120      37.44502120      54.69990643      50.20101743      50.20101743      55.92826162      39.53901628      39.53901628      37.90527339      36.55804512      36.55804512      59.08297036      59.08297036      55.07481384      48.48802582      48.48802582      57.26329778      80.23933114      80.23933114      88.79514510
          88.27698038      88.27698038      97.66185789      86.45730780      86.45730780      83.17458189      85.11312755      85.11312755      93.95240809      75.69776976      75.69776976      71.89383110      80.19361072      80.19361072      75.96599620      62.32302389      62.32302389      94.98873754     105.81228416     105.81228416
         107.72034955     107.72034955     107.72034955     120.82686897     120.82686897     112.24971882     129.37049082     129.37049082     121.97292742     112.19485432     112.19485432     116.78213612     137.13076954     137.13076954     130.44339660     102.52651022     102.52651022     100.07284786      88.11543491      88.11543491
          99.25902445      99.75890100      99.75890100     104.24864591     106.32435283     106.32435283     107.29667369     106.29387255     106.29387255     100.05760772     102.43506939     102.43506939     102.70939189     102.70939189      89.67297710      56.58968365      56.58968365      50.37780304      34.39699343      34.39699343
          34.39699343      34.39699343      34.41223356      34.41223356      31.09293132      47.32977527      47.32977527      64.18232083      70.86969376      70.86969376      73.98782618      72.52477285      72.52477285      90.00826016      82.17787680      82.17787680      71.87554293     100.85314297     100.85314297     119.00719639
         111.25910979     111.25910979     126.11824519     120.17154300     120.17154300     111.44503949     116.74555979     116.74555979     111.16766896      84.37855286      84.37855286      63.29839277      63.29839277      36.89332817      44.83344052      44.83344052      47.69858663      42.24871297      42.24871297      44.24517116
          47.91194857      47.91194857      48.07044602      65.28875491      65.28875491      66.91944977      71.32384990      71.32384990      56.69636462      67.48028688      67.48028688      56.85181403      59.05858614      59.05858614      61.77133086      60.63441650      60.63441650      58.77207153      58.87570448      58.87570448
          72.48819651      72.48819651      75.27104587      75.27104587      75.27104587      75.27104587      75.27104587      75.27104587      75.27104587      74.11889137      74.11889137      74.11889137      74.11889137      74.11889137      74.11889137      57.92776784      57.92776784      57.92776784      57.92776784      57.92776784
          57.92776784      57.84547109      57.84547109      57.84547109      57.84547109      57.84547109      57.84547109      63.37154544      63.37154544      63.37154544      63.37154544      63.37154544      63.37154544      52.86499371      52.86499371      52.86499371      52.86499371      52.86499371      52.86499371      54.53836095
          54.53836095      54.53836095      54.53836095      54.53836095      54.53836095      43.46487605      43.46487605      43.46487605      43.46487605      43.46487605      43.46487605      38.03938661      38.03938661      38.03938661      38.03938661      38.03938661      38.03938661      40.20348633      40.20348633      40.20348633
          40.20348633      40.20348633      40.20348633      45.54667902      45.54667902      45.54667902      45.54667902      45.54667902      45.54667902      45.54667902      47.75040310      47.75040310      47.75040310      47.75040310      47.75040310      47.75040310      58.94580911      58.94580911      58.94580911      58.94580911
          58.94580911      58.94580911      72.21387401      72.21387401      72.21387401      72.21387401      72.21387401      72.21387401      58.51908523      58.51908523      58.51908523      58.51908523      58.51908523      58.51908523      62.56686611      62.56686611      62.56686611      62.56686611      62.56686611      62.56686611
          31.22704454      31.22704454      31.22704454      31.22704454      31.22704454      31.22704454      29.93163274      29.93163274      29.93163274      29.93163274      29.93163274      29.93163274      34.39089737      34.39089737      34.39089737      34.39089737      34.39089737      34.39089737      24.19829249      47.33282330
          47.33282330      47.33282330      47.33282330      47.33282330      47.33282330      46.86952308      46.86952308      46.86952308      46.86952308      46.86952308      46.86952308      30.53819026      30.53819026      30.53819026      30.53819026      30.53819026      30.53819026      30.53819026      22.88154450      22.88154450
          22.88154450      22.88154450      22.88154450      22.88154450      22.26279486      22.26279486      22.26279486      22.26279486      22.26279486      22.26279486      36.63424581      36.63424581      36.63424581      36.63424581      36.63424581      36.63424581      44.89744911      44.89744911      44.89744911      44.89744911
          44.89744911      44.89744911      69.70839518      69.70839518      69.70839518      69.70839518      69.70839518      69.70839518      68.30630241      68.30630241      68.30630241      68.30630241      68.30630241      68.30630241      69.34263185      69.34263185      69.34263185      69.34263185      69.34263185      69.34263185
          76.72190709      76.72190709      76.72190709      76.72190709      76.72190709      76.72190709      76.46587276      76.46587276      76.46587276      76.46587276      76.46587276      76.46587276      68.50442421      68.50442421      68.50442421      68.50442421      68.50442421      68.50442421      64.52065191      64.52065191
          64.52065191      64.52065191      64.52065191      64.52065191      64.52065191      74.28653290      74.28653290      74.28653290      74.28653290      74.28653290      74.28653290      82.36075847      82.36075847      82.36075847      82.36075847      82.36075847      82.36075847      94.68393476      94.68393476      94.68393476
          94.68393476      94.68393476      94.68393476      85.75626141      85.75626141      85.75626141      85.75626141      85.75626141      85.75626141      93.52568421      93.52568421      93.52568421      93.52568421      93.52568421      93.52568421      75.98123634      75.98123634      75.98123634      75.98123634      75.98123634
          75.98123634      67.47419082      67.47419082      67.47419082      67.47419082      67.47419082      67.47419082      66.68170360      66.68170360      66.68170360      66.68170360      66.68170360      66.68170360      66.68170360     101.15794575      99.88082211      99.88082211      99.88082211      99.88082211      99.88082211
          98.61284256      98.61284256      98.61284256      98.61284256      98.61284256     107.83007855     107.83007855     107.83007855     107.83007855     107.83007855     114.10291971     114.10291971     114.10291971     114.10291971     114.10291971     114.10291971     111.04269982     111.04269982     111.04269982     111.04269982
         111.04269982     119.02853259     119.02853259     119.02853259     119.02853259     119.02853259     106.37007324     106.37007324     106.37007324     106.37007324     106.37007324     104.35837491     104.35837491     104.35837491     104.35837491     104.35837491      91.94680582      91.94680582      91.94680582      91.94680582
          91.94680582      94.14443384      94.14443384      94.14443384      94.14443384      94.14443384      94.14443384      88.52082260      88.52082260      88.52082260      88.52082260      88.52082260      88.52082260     116.66631106     116.66631106     116.66631106     116.66631106     116.66631106      83.31479116      83.31479116
          83.31479116      83.31479116      83.31479116      83.31479116      88.38061332      88.38061332      88.38061332      88.38061332      88.38061332      86.28357022      71.90602321      71.90602321      71.90602321      71.90602321      71.90602321      74.28043684      74.28043684      74.28043684      74.28043684      74.28043684
          66.00199341      66.00199341      66.00199341      66.00199341      66.00199341      63.30448883      63.30448883      63.30448883      63.30448883      63.30448883      68.16609313      68.16609313      68.16609313      68.16609313      68.16609313      68.16609313      67.19072424      67.19072424      67.19072424      67.19072424
          67.19072424      73.92686562      73.92686562      73.92686562      73.92686562      73.92686562      64.11526422      64.11526422      64.11526422      64.11526422      64.11526422      73.22581923      73.22581923      73.22581923      73.22581923      73.22581923      90.89828427      90.89828427      90.89828427      90.89828427
          90.89828427      90.89828427     109.92712166     109.92712166     109.92712166     109.92712166     109.92712166     109.92712166     101.81022369     101.81022369     101.81022369     101.81022369     101.81022369     101.81022369      94.83024009      94.83024009      94.83024009      94.83024009      94.83024009      85.94219111
          85.94219111      85.94219111      85.94219111      85.94219111      94.47362084      94.47362084      94.47362084      94.47362084      94.47362084      94.47362084      76.95965326      76.95965326      76.95965326      76.95965326      76.95965326      76.95965326      67.47723885      67.47723885      67.47723885      67.47723885
          67.47723885      66.51711010      66.51711010      66.51711010      66.51711010      66.51711010      66.51711010      66.51711010      66.51711010      66.51711010      66.51711010      66.51711010      66.51711010      76.52378528      76.52378528      76.52378528      76.52378528      76.52378528      66.60245488      66.60245488
          66.60245488      66.60245488      66.60245488      85.60386002      85.60386002      85.60386002      85.60386002      85.60386002     108.79020730     108.79020730     108.79020730     108.79020730     108.79020730      85.00949461      85.00949461      85.00949461      85.00949461      85.00949461      78.73665345      78.73665345
          78.73665345      78.73665345      78.73665345      78.73665345      78.73665345      88.19468363      88.19468363      88.19468363      88.19468363      88.19468363      98.10077389      98.10077389      98.10077389      98.10077389      98.10077389      98.10077389      98.10077389      98.10077389      98.10077389      93.08981623
          93.08981623      93.08981623      93.08981623      93.08981623      93.08981623      93.08981623      93.08981623      93.08981623      72.57354129      72.57354129      72.57354129      72.57354129      72.57354129      72.57354129      72.57354129      72.57354129      72.57354129      88.19468363      88.19468363      88.19468363
          88.19468363      72.09195290      72.09195290      72.09195290      72.09195290      72.09195290      57.23281751      57.23281751      57.23281751      57.23281751      57.23281751      57.23281751      57.23281751      57.23281751      57.23281751      52.88937793      52.88937793      52.88937793      52.88937793      52.88937793
          52.88937793      52.88937793      52.88937793      52.88937793      50.29245826      50.29245826      50.29245826      50.29245826      50.29245826      50.29245826      50.29245826      50.29245826      50.29245826      72.09195290      72.09195290      72.09195290      72.09195290      43.46487605      43.46487605      43.46487605
          43.46487605      43.46487605      29.09342510      29.09342510      29.09342510      29.09342510      29.09342510      29.09342510      29.09342510      29.09342510      29.09342510      44.29698763      44.29698763      44.29698763      44.29698763      44.29698763      44.29698763      44.29698763      44.29698763      44.29698763
          49.44815457      49.44815457      49.44815457      49.44815457      49.44815457      49.44815457      49.44815457      49.44815457      49.44815457      43.46487605      43.46487605      43.46487605      43.46487605      23.33265261      23.33265261      23.33265261      23.33265261      29.97125710      29.97125710      29.97125710
          29.97125710      29.97125710      29.97125710      57.74183814      57.74183814      57.74183814      57.74183814      57.74183814      57.74183814      75.06987604      75.06987604      75.06987604      75.06987604      75.06987604      75.06987604      70.20522371      70.20522371      70.20522371      70.20522371      70.20522371
          70.20522371      66.60245488      66.60245488      66.60245488      66.60245488      66.60245488      66.60245488      74.58523962      74.58523962      74.58523962      74.58523962      74.58523962      74.58523962      68.41603141      68.41603141      68.41603141      68.41603141      68.41603141      68.41603141      61.08552461
          61.08552461      61.08552461      61.08552461      61.08552461      61.08552461      70.03758218      70.03758218      70.03758218      70.03758218      70.03758218      70.03758218      76.06658112      76.06658112      76.06658112      76.06658112      76.06658112      76.06658112      76.06658112      73.79580043      73.79580043
          73.79580043      73.79580043      73.79580043      73.79580043      88.86524974      88.86524974      88.86524974      88.86524974      88.86524974      88.86524974      78.87381470      78.87381470      78.87381470      78.87381470      78.87381470      78.87381470      71.10439190      71.10439190      71.10439190      71.10439190
          71.10439190      71.10439190      65.75815119      65.75815119      65.75815119      65.75815119      65.75815119      65.75815119      61.20744572      61.20744572      61.20744572      61.20744572      61.20744572      61.20744572      66.45614955      66.45614955      66.45614955      66.45614955      66.45614955      66.45614955
          66.45614955      45.29369272      66.51711010      67.47723885      81.08973089      76.95965326     101.81022369      78.73665345      85.00949461      90.89828427      73.22581923     109.92712166     116.66631106      88.52082260      71.90602321      88.38061332      66.51711010      76.95965326     101.81022369      78.73665345
         109.92712166     116.66631106      71.90602321      66.51711010      76.95965326     101.81022369      78.73665345     109.92712166     116.66631106      71.90602321      78.73665345      78.73665345      66.51711010      90.85256385      94.47362084      76.95965326     109.92712166     101.81022369      90.89828427     109.92712166
          88.52082260      91.48960165      88.38061332      71.90602321      78.73665345     100.61234878      66.51711010      90.85256385      94.47362084      76.95965326     109.92712166     101.81022369      90.89828427     109.92712166      88.52082260      91.48960165      88.38061332      71.90602321      78.73665345     100.61234878
          66.51711010      94.47362084     109.92712166      90.89828427     116.66631106      66.07819410      78.73665345      81.64447194      86.93889619      66.51711010      67.47723885      71.84201462      94.47362084      81.08973089      84.23529555     109.92712166      90.89828427      82.59850464      90.89828427      73.22581923
          88.52082260      88.52082260      97.49116834      88.38061332      88.38061332      86.28357022      78.73665345      85.00949461      66.51711010      85.68920480      83.31479116      88.38061332     109.92712166     109.92712166     100.61234878     100.61234878      71.84201462      71.84201462      84.23529555      84.23529555
          82.59850464      82.59850464      97.49116834      97.49116834      86.28357022      86.28357022      66.51711010      88.38061332      81.64447194      86.93889619      81.64447194     109.92712166      86.93889619     100.61234878      94.47362084      30.53819026      22.88154450      66.51711010      94.47362084     109.92712166
          90.89828427     116.66631106      66.07819410      78.73665345      85.94219111      67.47723885      66.51711010      83.31479116      66.07819410      94.47362084      22.88154450      66.51711010      66.51711010      94.47362084      94.47362084     109.92712166     109.92712166      90.89828427      90.89828427     116.66631106
         116.66631106      66.07819410      66.07819410      78.73665345      78.73665345      67.47723885      66.51711010      88.38061332      66.07819410      81.08973089      94.47362084      22.88154450      25.00601985      94.47362084      25.00601985      90.85256385      76.95965326     101.81022369      91.48960165      71.90602321
          67.47723885      85.68920480      75.57280062      83.31479116      83.31479116      70.07720654      22.88154450      25.00601985      22.88154450      22.88154450      22.88154450      90.89828427      59.65904761     111.04269982     114.10291971      34.39699343      66.51711010      66.51711010      66.07819410      66.07819410
          94.47362084      94.47362084      35.65278087      25.00601985      25.00601985      22.88154450      34.39699343      66.51711010      66.07819410      94.47362084      35.65278087      25.00601985      34.39699343      67.19072424      68.16609313      67.47723885      81.08973089      90.89828427      73.22581923      88.52082260
          88.38061332      85.00949461     109.92712166      30.53819026      85.94219111      66.51711010      94.47362084     109.92712166      90.89828427     116.66631106      66.07819410      78.73665345      96.06469134      75.57280062      70.07720654      75.57280062      70.07720654      22.88154450      22.88154450      25.00601985
          67.47723885      81.08973089      90.89828427      88.52082260      88.38061332      30.53819026      22.88154450      22.88154450      22.88154450      22.88154450      78.73665345      74.43893429      88.52082260     100.61234878     100.61234878      67.47723885      88.38061332      90.85256385      76.95965326     101.81022369
          91.48960165      71.90602321      73.22581923     111.04269982     123.28662739      34.39699343      67.19072424      46.36050244      90.89828427      73.22581923      85.00949461     109.92712166      85.94219111      81.08973089      96.06469134      94.14443384      71.84201462      84.23529555      82.59850464      97.49116834
          86.28357022      35.65278087      85.00949461      78.73665345      88.52082260     116.66631106     100.61234878      67.47723885      67.47723885      88.38061332      88.38061332      90.85256385      76.95965326     101.81022369      91.48960165      71.90602321     123.28662739      34.39699343      46.36050244      90.89828427
          73.22581923      85.00949461     109.92712166      96.06469134      67.47723885      81.08973089      90.89828427      88.52082260      88.38061332      78.73665345     116.66631106      90.85256385      76.95965326     101.81022369      91.48960165      71.90602321      34.39699343      81.64447194      86.93889619      50.29245826
          49.44815457      41.90123780      44.29698763      49.44815457      43.46487605      44.29698763      29.09342510      38.03938661      43.46487605      29.09342510      66.68170360      75.26799784      63.45993825      52.88937793      46.22334119      58.40935623      57.45227551      72.09195290      72.09195290      57.23281751
          93.08981623      80.80016825      72.57354129      88.19468363      88.19468363      98.10077389      98.10077389      73.22581923      59.65904761     114.10291971     114.10291971      66.51711010      94.47362084     109.92712166      90.89828427     116.66631106      66.07819410      78.73665345      22.88154450      81.08973089
          71.84201462      84.23529555      82.59850464      97.49116834      86.28357022      73.47270948      35.65278087     100.61234878     116.73336767      40.18519817      70.65023576     109.92712166      74.95100295     116.66631106      81.64447194      86.93889619      50.29245826      50.29245826      50.29245826      49.44815457
          49.44815457      41.90123780      49.44815457      49.44815457      41.90123780      44.29698763      49.44815457      46.16542866      54.53836095      43.46487605      44.29698763      44.29698763      44.29698763      29.09342510      43.46487605      29.09342510      43.46487605      29.09342510      29.09342510      66.45614955
          66.45614955      63.45993825      52.88937793      52.88937793      63.45993825      52.88937793      52.88937793      52.88937793      50.29245826      52.88937793      52.88937793      57.23281751      50.29245826      72.09195290      72.09195290      72.09195290      57.23281751      72.09195290      57.23281751      57.23281751
          93.08981623      93.08981623      93.08981623      80.80016825      80.80016825      72.57354129      80.80016825      72.57354129      72.57354129      72.57354129      88.19468363      88.19468363      88.19468363      98.10077389     108.89688827      88.19468363      98.10077389      93.08981623      98.10077389      98.10077389
          71.84201462      84.23529555      82.59850464      97.49116834      86.28357022      72.57354129      93.08981623     116.73336767      40.18519817      70.65023576      74.95100295     116.66631106      81.64447194      50.29245826      49.44815457      49.44815457      41.90123780      41.90123780      41.90123780      41.90123780
          41.90123780      43.46487605      43.46487605      44.29698763      44.29698763      36.38125951      29.09342510      43.46487605      29.09342510      66.45614955      66.45614955      63.45993825      63.45993825      63.45993825      63.45993825      63.45993825      63.45993825      52.88937793      52.88937793      50.29245826
          72.09195290      72.09195290      57.23281751      61.17696544      57.23281751      93.08981623      80.80016825      80.80016825      80.80016825      80.80016825      80.80016825      72.57354129      88.19468363      73.68302340      88.19468363      98.10077389     116.99549806      98.10077389      90.85256385      76.95965326
         101.81022369      91.48960165      71.90602321      72.57354129      93.08981623      81.64447194      49.44815457      41.90123780      41.90123780      41.90123780      41.90123780      29.09342510      41.90123780      41.90123780      63.45993825      63.45993825      63.45993825      63.45993825      72.09195290      63.45993825
          63.45993825      57.23281751      80.80016825      80.80016825      98.10077389      80.80016825      80.80016825      80.80016825      88.19468363      72.57354129      71.84201462      84.23529555      82.59850464      97.49116834      86.28357022      44.29698763      41.90123780      44.29698763      29.09342510      41.90123780
          57.23281751      63.45993825      72.09195290      63.45993825      93.08981623      80.80016825      80.80016825      80.80016825      41.90123780      34.39089737      55.08700595      67.47723885      81.08973089      90.89828427      73.22581923      88.52082260      88.38061332      85.00949461      25.00601985      25.00601985
          22.88154450      90.85256385      76.95965326     101.81022369      91.48960165      71.90602321      66.68170360      22.88154450      81.08973089      81.08973089     116.73336767      70.65023576     116.66631106      86.93889619      63.45993825      35.65278087      50.29245826      49.44815457      49.44815457      41.90123780
          54.53836095      43.46487605      44.29698763      44.29698763      29.09342510      43.46487605      29.09342510      63.45993825      52.88937793      52.88937793      72.09195290      57.23281751      93.08981623      80.80016825      72.57354129      88.19468363      73.68302340      88.19468363      98.10077389      98.10077389
          93.08981623      81.64447194      41.90123780      41.90123780      63.45993825      57.23281751      80.80016825      41.90123780      41.90123780      63.45993825      63.45993825      63.45993825      63.45993825      80.80016825      80.80016825      80.80016825      80.80016825      41.90123780      61.39642344      90.85256385
          76.95965326     101.81022369     101.81022369      91.48960165      71.90602321      71.90602321      66.68170360      22.88154450      35.65278087      49.44815457      41.90123780      44.29698763      43.46487605      63.45993825      63.45993825      52.88937793      72.09195290      57.23281751      80.80016825      72.57354129
          98.10077389      81.64447194      41.90123780      63.45993825      57.23281751      80.80016825      41.90123780      41.90123780      63.45993825      63.45993825      80.80016825      80.80016825      80.80016825      62.14928630      90.85256385      76.95965326      91.48960165      41.90123780      80.80016825      81.64447194
          41.90123780      63.45993825      80.80016825      41.90123780      41.90123780      63.45993825      63.45993825      80.80016825      80.80016825      80.80016825      62.14928630      62.14928630      69.42492860      68.94943627      68.94943627      65.69109458      64.78278230      77.96245439      77.96245439      82.74176194
          82.23274130      82.23274130      75.69776976      62.95701366      68.62024927      68.62024927      55.23026326      70.93979840      47.75040310      70.93979840      76.50549712      77.75823653      72.21387401      82.59240858      58.51908523      82.59240858      69.10793371      50.49972415      31.22704454      50.49972415
          42.11155172      31.42821437      47.33282330      31.58061576      66.45614955      61.20744572      65.75815119      71.10439190      71.10439190      78.87381470      88.86524974      88.86524974      73.79580043      76.06658112      70.03758218      70.03758218      61.08552461      68.41603141      68.41603141      74.58523962
          66.60245488      70.20522371      70.20522371      75.06987604      57.74183814      57.74183814      29.97125710      50.42657149      30.67230349      31.58061576      23.33265261      85.68920480      83.31479116      66.51711010      66.07819410      94.47362084     109.92712166      66.51711010      94.47362084      90.89828427
          66.07819410      78.73665345      30.53819026      79.85527964      67.47723885      88.38061332      75.26799784      50.29245826      46.16542866      29.09342510      66.45614955      66.45614955      58.40935623      57.45227551      57.45227551      93.08981623      72.57354129     108.89688827      36.38125951      66.45614955
          66.45614955      46.22334119      72.09195290      61.17696544     116.99549806      73.47270948      71.84201462      84.23529555      82.59850464      97.49116834      86.28357022      29.93163274      34.39089737      34.39089737      56.52567506      67.47723885      90.89828427      73.22581923      88.52082260      88.38061332
          85.00949461      25.00601985      22.88154450      66.68170360      81.08973089     116.66631106      86.93889619      40.18519817      50.29245826      49.44815457      52.86499371      52.86499371      49.44815457      57.84547109      54.53836095      54.53836095      43.46487605      43.46487605      43.46487605      44.29698763
          44.29698763      29.09342510      45.54667902      43.46487605      43.46487605      38.03938661      38.03938661      38.03938661      52.88937793      81.80296939      72.34189118      52.88937793      82.72347378      72.09195290      57.23281751      55.90997345      68.62329730      93.08981623      72.57354129      88.19468363
          73.68302340      88.19468363      98.10077389      98.10077389      73.47270948      57.23281751      63.45993825      41.90123780      63.21914405     101.81022369      71.90602321      22.26279486      22.88154450      25.00601985      63.45993825      62.14928630      90.85256385      90.85256385      76.95965326      76.95965326
          91.48960165      91.48960165      41.90123780      80.80016825      62.14928630      75.29543009      61.20744572      68.94943627      68.94943627      75.26799784      61.20744572      65.69109458      65.69109458      68.94943627      65.75815119      64.78278230      65.69109458      65.69109458      71.10439190      64.78278230
          64.78278230      64.78278230      78.87381470      77.96245439      77.96245439      64.78278230      78.87381470      82.74176194      82.74176194      77.96245439      88.86524974      82.74176194      82.74176194      82.74176194      73.79580043      82.23274130      82.23274130      82.74176194      76.06658112      75.69776976
          75.69776976      82.23274130      76.06658112      75.69776976      75.69776976      75.69776976      70.03758218      62.95701366      62.95701366      62.95701366      61.08552461      68.62024927      68.62024927      62.95701366      61.08552461      55.23026326      68.62024927      68.62024927      55.23026326      68.41603141