BEGIN options
  BUDGET  FILEOUT  sv.cbc
  HEAD  FILEOUT  sv.hds
END options

BEGIN period  1
  SAVE  HEAD  ALL
  SAVE  BUDGET  ALL
  PRINT  BUDGET  ALL
END period  1

