BEGIN options
  auxiliary  iflowface
  PRINT_STAGE
  PRINT_FLOWS
  STAGE  FILEOUT  sv.sfr.stage.bin
  BUDGET  FILEOUT  sv.sfr.cbc
  MOVER
  TIME_CONVERSION   86400.00000000
END options

BEGIN dimensions
  NREACHES  108
END dimensions

BEGIN packagedata
  1  1 734      12.50000000       3.04802777  2.00000000E-04      -0.09269083       0.30480278       1.91118308  0.03  1       1.00000000  0      -1.00000000
  2  1 735      25.00000000       3.04802777  2.00000000E-04      -0.09644083       0.30480278       1.91118308  0.03  2       1.00000000  0      -1.00000000
  3  1 736      25.00000000       3.04802777  2.00000000E-04      -0.10144083       0.30480278       1.91118308  0.03  2       1.00000000  0      -1.00000000
  4  1 737      25.00000000       3.04802777  2.00000000E-04      -0.10644083       0.30480278       1.91118308  0.03  2       1.00000000  0      -1.00000000
  5  1 738      25.00000000       3.04802777  2.00000000E-04      -0.11144083       0.30480278       1.91118308  0.03  2       1.00000000  0      -1.00000000
  6  1 739      25.00000000       3.04802777  2.00000000E-04      -0.11644083       0.30480278       1.91118308  0.03  2       1.00000000  0      -1.00000000
  7  1 740      25.00000000       3.04802777  2.00000000E-04      -0.12144083       0.30480278       1.91118308  0.03  2       1.00000000  0      -1.00000000
  8  1 741      25.00000000       3.04802777  2.00000000E-04      -0.12644083       0.30480278       1.91118308  0.03  2       1.00000000  0      -1.00000000
  9  1 742      25.00000000       3.04802777  2.00000000E-04      -0.13144083       0.30480278       1.91118308  0.03  2       1.00000000  0      -1.00000000
  10  1 743      25.00000000       3.04802777  2.00000000E-04      -0.13644083       0.30480278       1.91118308  0.03  2       1.00000000  0      -1.00000000
  11  1 744      25.00000000       3.04802777  2.00000000E-04      -0.14144083       0.30480278       1.91118308  0.03  2       1.00000000  0      -1.00000000
  12  1 745      25.00000000       3.04802777  2.00000000E-04      -0.14644083       0.30480278       1.91118308  0.03  2       1.00000000  0      -1.00000000
  13  1 746      25.00000000       3.04802777  2.00000000E-04      -0.15144083       0.30480278       1.91118308  0.03  2       1.00000000  0      -1.00000000
  14  1 747      25.00000000       3.04802777  2.00000000E-04      -0.15644083       0.30480278       1.91118308  0.03  2       1.00000000  0      -1.00000000
  15  1 748      25.00000000       3.04802777  2.00000000E-04      -0.16144083       0.30480278       1.91118308  0.03  2       1.00000000  0      -1.00000000
  16  1 749      25.00000000       3.04802777  2.00000000E-04      -0.16644083       0.30480278       1.91118308  0.03  2       1.00000000  0      -1.00000000
  17  1 750      25.00000000       3.04802777  2.00000000E-04      -0.17144083       0.30480278       1.91118308  0.03  2       1.00000000  0      -1.00000000
  18  1 751      25.00000000       3.04802777  2.00000000E-04      -0.17644083       0.30480278       1.91118308  0.03  2       1.00000000  0      -1.00000000
  19  1 752      25.00000000       3.04802777  2.00000000E-04      -0.18144083       0.30480278       1.91118308  0.03  2       1.00000000  0      -1.00000000
  20  1 753      25.00000000       3.04802777  2.00000000E-04      -0.18644083       0.30480278       1.91118308  0.03  2       1.00000000  0      -1.00000000
  21  1 754      25.00000000       3.04802777  2.00000000E-04      -0.19144083       0.30480278       1.91118308  0.03  2       1.00000000  0      -1.00000000
  22  1 755      25.00000000       3.04802777  2.00000000E-04      -0.19644083       0.30480278       1.91118308  0.03  2       1.00000000  0      -1.00000000
  23  1 762      25.00000000       3.04802777  2.00000000E-04      -0.20144083       0.30480278       1.91118308  0.03  2       1.00000000  0      -1.00000000
  24  1 763      25.00000000       3.04802777  2.00000000E-04      -0.20644083       0.30480278       1.91118308  0.03  2       1.00000000  0      -1.00000000
  25  1 764      25.00000000       3.04802777  2.00000000E-04      -0.21144083       0.30480278       1.91118308  0.03  2       1.00000000  0      -1.00000000
  26  1 765      25.00000000       3.04802777  2.00000000E-04      -0.21644083       0.30480278       1.91118308  0.03  2       1.00000000  0      -1.00000000
  27  1 766      25.00000000       3.04802777  2.00000000E-04      -0.22144083       0.30480278       1.91118308  0.03  2       1.00000000  0      -1.00000000
  28  1 767      25.00000000       3.04802777  2.00000000E-04      -0.22644083       0.30480278       1.91118308  0.03  2       1.00000000  0      -1.00000000
  29  1 756      25.00000000       3.04802777  2.00000000E-04      -0.23144083       0.30480278       1.91118308  0.03  2       1.00000000  0      -1.00000000
  30  1 757      25.00000000       3.04802777  2.00000000E-04      -0.23644083       0.30480278       1.91118308  0.03  2       1.00000000  0      -1.00000000
  31  1 758      25.00000000       3.04802777  2.00000000E-04      -0.24144083       0.30480278       1.91118308  0.03  2       1.00000000  0      -1.00000000
  32  1 759      25.00000000       3.04802777  2.00000000E-04      -0.24644083       0.30480278       1.91118308  0.03  2       1.00000000  0      -1.00000000
  33  1 760      25.00000000       3.04802777  2.00000000E-04      -0.25144083       0.30480278       1.91118308  0.03  2       1.00000000  0      -1.00000000
  34  1 761      25.00000000       3.04802777  2.00000000E-04      -0.25644083       0.30480278       1.91118308  0.03  2       1.00000000  0      -1.00000000
  35  1 768      25.00000000       3.04802777  2.00000000E-04      -0.26144083       0.30480278       1.91118308  0.03  2       1.00000000  0      -1.00000000
  36  1 769      25.00000000       3.04802777  2.00000000E-04      -0.26644083       0.30480278       1.91118308  0.03  2       1.00000000  0      -1.00000000
  37  1 770      25.00000000       3.04802777  2.00000000E-04      -0.27144083       0.30480278       1.91118308  0.03  2       1.00000000  0      -1.00000000
  38  1 771      25.00000000       3.04802777  2.00000000E-04      -0.27644083       0.30480278       1.91118308  0.03  2       1.00000000  0      -1.00000000
  39  1 772      25.00000000       3.04802777  2.00000000E-04      -0.28144083       0.30480278       1.91118308  0.03  2       1.00000000  0      -1.00000000
  40  1 773      25.00000000       3.04802777  2.00000000E-04      -0.28644083       0.30480278       1.91118308  0.03  2       1.00000000  0      -1.00000000
  41  1 774      25.00000000       3.04802777  2.00000000E-04      -0.29144083       0.30480278       1.91118308  0.03  2       1.00000000  0      -1.00000000
  42  1 775      25.00000000       3.04802777  2.00000000E-04      -0.29644083       0.30480278       1.91118308  0.03  2       1.00000000  0      -1.00000000
  43  1 776      25.00000000       3.04802777  2.00000000E-04      -0.30144083       0.30480278       1.91118308  0.03  2       1.00000000  0      -1.00000000
  44  1 777      25.00000000       3.04802777  2.00000000E-04      -0.30644083       0.30480278       1.91118308  0.03  2       1.00000000  0      -1.00000000
  45  1 778      25.00000000       3.04802777  2.00000000E-04      -0.31144083       0.30480278       1.91118308  0.03  2       1.00000000  0      -1.00000000
  46  1 779      25.00000000       3.04802777  2.00000000E-04      -0.31644083       0.30480278       1.91118308  0.03  2       1.00000000  0      -1.00000000
  47  1 780      25.00000000       3.04802777  2.00000000E-04      -0.32144083       0.30480278       1.91118308  0.03  2       1.00000000  0      -1.00000000
  48  1 781      25.00000000       3.04802777  2.00000000E-04      -0.32644083       0.30480278       1.91118308  0.03  2       1.00000000  0      -1.00000000
  49  1 782      25.00000000       3.04802777  2.00000000E-04      -0.33144083       0.30480278       1.91118308  0.03  2       1.00000000  0      -1.00000000
  50  1 783      25.00000000       3.04802777  2.00000000E-04      -0.33644083       0.30480278       1.91118308  0.03  2       1.00000000  0      -1.00000000
  51  1 784      25.00000000       3.04802777  2.00000000E-04      -0.34144083       0.30480278       1.91118308  0.03  2       1.00000000  0      -1.00000000
  52  1 785      25.00000000       3.04802777  2.00000000E-04      -0.34644083       0.30480278       1.91118308  0.03  2       1.00000000  0      -1.00000000
  53  1 786      25.00000000       3.04802777  2.00000000E-04      -0.35144083       0.30480278       1.91118308  0.03  2       1.00000000  0      -1.00000000
  54  1 787      25.00000000       3.04802777  2.00000000E-04      -0.35644083       0.30480278       1.91118308  0.03  2       1.00000000  0      -1.00000000
  55  1 788      25.00000000       3.04802777  2.00000000E-04      -0.36144083       0.30480278       1.91118308  0.03  2       1.00000000  0      -1.00000000
  56  1 789      25.00000000       3.04802777  2.00000000E-04      -0.36644083       0.30480278       1.91118308  0.03  2       1.00000000  0      -1.00000000
  57  1 790      25.00000000       3.04802777  2.00000000E-04      -0.37144083       0.30480278       1.91118308  0.03  2       1.00000000  0      -1.00000000
  58  1 791      25.00000000       3.04802777  2.00000000E-04      -0.37644083       0.30480278       1.91118308  0.03  2       1.00000000  0      -1.00000000
  59  1 792      25.00000000       3.04802777  2.00000000E-04      -0.38144083       0.30480278       1.91118308  0.03  2       1.00000000  0      -1.00000000
  60  1 793      25.00000000       3.04802777  2.00000000E-04      -0.38644083       0.30480278       1.91118308  0.03  2       1.00000000  0      -1.00000000
  61  1 794      25.00000000       3.04802777  2.00000000E-04      -0.39144083       0.30480278       1.91118308  0.03  2       1.00000000  0      -1.00000000
  62  1 795      25.00000000       3.04802777  2.00000000E-04      -0.39644083       0.30480278       1.91118308  0.03  2       1.00000000  0      -1.00000000
  63  1 796      25.00000000       3.04802777  2.00000000E-04      -0.40144083       0.30480278       1.91118308  0.03  2       1.00000000  0      -1.00000000
  64  1 797      25.00000000       3.04802777  2.00000000E-04      -0.40644083       0.30480278       1.91118308  0.03  2       1.00000000  0      -1.00000000
  65  1 798      25.00000000       3.04802777  2.00000000E-04      -0.41144083       0.30480278       1.91118308  0.03  2       1.00000000  0      -1.00000000
  66  1 799      25.00000000       3.04802777  2.00000000E-04      -0.41644083       0.30480278       1.91118308  0.03  2       1.00000000  0      -1.00000000
  67  1 800      25.00000000       3.04802777  2.00000000E-04      -0.42144083       0.30480278       1.91118308  0.03  2       1.00000000  0      -1.00000000
  68  1 801      25.00000000       3.04802777  2.00000000E-04      -0.42644083       0.30480278       1.91118308  0.03  2       1.00000000  0      -1.00000000
  69  1 802      25.00000000       3.04802777  2.00000000E-04      -0.43144083       0.30480278       1.91118308  0.03  2       1.00000000  0      -1.00000000
  70  1 803      25.00000000       3.04802777  2.00000000E-04      -0.43644083       0.30480278       1.91118308  0.03  2       1.00000000  0      -1.00000000
  71  1 804      25.00000000       3.04802777  2.00000000E-04      -0.44144083       0.30480278       1.91118308  0.03  2       1.00000000  0      -1.00000000
  72  1 805      25.00000000       3.04802777  2.00000000E-04      -0.44644083       0.30480278       1.91118308  0.03  2       1.00000000  0      -1.00000000
  73  1 806      25.00000000       3.04802777  2.00000000E-04      -0.45144083       0.30480278       1.91118308  0.03  2       1.00000000  0      -1.00000000
  74  1 807      25.00000000       3.04802777  2.00000000E-04      -0.45644083       0.30480278       1.91118308  0.03  2       1.00000000  0      -1.00000000
  75  1 808      25.00000000       3.04802777  2.00000000E-04      -0.46144083       0.30480278       1.91118308  0.03  2       1.00000000  0      -1.00000000
  76  1 809      25.00000000       3.04802777  2.00000000E-04      -0.46644083       0.30480278       1.91118308  0.03  2       1.00000000  0      -1.00000000
  77  1 810      25.00000000       3.04802777  2.00000000E-04      -0.47144083       0.30480278       1.91118308  0.03  2       1.00000000  0      -1.00000000
  78  1 811      25.00000000       3.04802777  2.00000000E-04      -0.47644083       0.30480278       1.91118308  0.03  2       1.00000000  0      -1.00000000
  79  1 812      25.00000000       3.04802777  2.00000000E-04      -0.48144083       0.30480278       1.91118308  0.03  2       1.00000000  0      -1.00000000
  80  1 813      25.00000000       3.04802777  2.00000000E-04      -0.48644083       0.30480278       1.91118308  0.03  2       1.00000000  0      -1.00000000
  81  1 814      25.00000000       3.04802777  2.00000000E-04      -0.49144083       0.30480278       1.91118308  0.03  2       1.00000000  0      -1.00000000
  82  1 815      25.00000000       3.04802777  2.00000000E-04      -0.49644083       0.30480278       1.91118308  0.03  2       1.00000000  0      -1.00000000
  83  1 816      25.00000000       3.04802777  2.00000000E-04      -0.50144083       0.30480278       1.91118308  0.03  2       1.00000000  0      -1.00000000
  84  1 817      25.00000000       3.04802777  2.00000000E-04      -0.50644083       0.30480278       1.91118308  0.03  2       1.00000000  0      -1.00000000
  85  1 818      25.00000000       3.04802777  2.00000000E-04      -0.51144083       0.30480278       1.91118308  0.03  2       1.00000000  0      -1.00000000
  86  1 819      25.00000000       3.04802777  2.00000000E-04      -0.51644083       0.30480278       1.91118308  0.03  2       1.00000000  0      -1.00000000
  87  1 820      25.00000000       3.04802777  2.00000000E-04      -0.52144083       0.30480278       1.91118308  0.03  2       1.00000000  0      -1.00000000
  88  1 821      25.00000000       3.04802777  2.00000000E-04      -0.52644083       0.30480278       1.91118308  0.03  2       1.00000000  0      -1.00000000
  89  1 822      25.00000000       3.04802777  2.00000000E-04      -0.53144083       0.30480278       1.91118308  0.03  2       1.00000000  0      -1.00000000
  90  1 823      25.00000000       3.04802777  2.00000000E-04      -0.53644083       0.30480278       1.91118308  0.03  2       1.00000000  0      -1.00000000
  91  1 824      25.00000000       3.04802777  2.00000000E-04      -0.54144083       0.30480278       1.91118308  0.03  2       1.00000000  0      -1.00000000
  92  1 825      25.00000000       3.04802777  2.00000000E-04      -0.54644083       0.30480278       1.91118308  0.03  2       1.00000000  0      -1.00000000
  93  1 826      25.00000000       3.04802777  2.00000000E-04      -0.55144083       0.30480278       1.91118308  0.03  2       1.00000000  0      -1.00000000
  94  1 827      25.00000000       3.04802777  2.00000000E-04      -0.55644083       0.30480278       1.91118308  0.03  2       1.00000000  0      -1.00000000
  95  1 828      25.00000000       3.04802777  2.00000000E-04      -0.56144083       0.30480278       1.91118308  0.03  2       1.00000000  0      -1.00000000
  96  1 829      25.00000000       3.04802777  2.00000000E-04      -0.56644083       0.30480278       1.91118308  0.03  2       1.00000000  0      -1.00000000
  97  1 830      25.00000000       3.04802777  2.00000000E-04      -0.57144083       0.30480278       1.91118308  0.03  2       1.00000000  0      -1.00000000
  98  1 831      25.00000000       3.04802777  2.00000000E-04      -0.57644083       0.30480278       1.91118308  0.03  2       1.00000000  0      -1.00000000
  99  1 832      25.00000000       3.04802777  2.00000000E-04      -0.58144083       0.30480278       1.91118308  0.03  2       1.00000000  0      -1.00000000
  100  1 833      25.00000000       3.04802777  2.00000000E-04      -0.58644083       0.30480278       1.91118308  0.03  2       1.00000000  0      -1.00000000
  101  1 834      25.00000000       3.04802777  2.00000000E-04      -0.59144083       0.30480278       1.91118308  0.03  2       1.00000000  0      -1.00000000
  102  1 835      25.00000000       3.04802777  2.00000000E-04      -0.59644083       0.30480278       1.91118308  0.03  2       1.00000000  0      -1.00000000
  103  1 836      25.00000000       3.04802777  2.00000000E-04      -0.60144083       0.30480278       1.91118308  0.03  2       1.00000000  0      -1.00000000
  104  1 837      25.00000000       3.04802777  2.00000000E-04      -0.60644083       0.30480278       1.91118308  0.03  2       1.00000000  0      -1.00000000
  105  1 838      25.00000000       3.04802777  2.00000000E-04      -0.61144083       0.30480278       1.91118308  0.03  2       1.00000000  0      -1.00000000
  106  1 839      25.00000000       3.04802777  2.00000000E-04      -0.61644083       0.30480278       1.91118308  0.03  2       1.00000000  0      -1.00000000
  107  1 840      21.01215096       3.04802777  2.00000000E-04      -0.62104205       0.30480278       1.91118308  0.03  2       1.00000000  0      -1.00000000
  108  1 841       8.51215096       3.04802777  2.00000000E-04      -0.62399448       0.30480278       1.91118308  0.03  1       1.00000000  0      -1.00000000
END packagedata

BEGIN connectiondata
  1  -2
  2  1  -3
  3  2  -4
  4  3  -5
  5  4  -6
  6  5  -7
  7  6  -8
  8  7  -9
  9  8  -10
  10  9  -11
  11  10  -12
  12  11  -13
  13  12  -14
  14  13  -15
  15  14  -16
  16  15  -17
  17  16  -18
  18  17  -19
  19  18  -20
  20  19  -21
  21  20  -22
  22  21  -23
  23  22  -24
  24  23  -25
  25  24  -26
  26  25  -27
  27  26  -28
  28  27  -29
  29  28  -30
  30  29  -31
  31  30  -32
  32  31  -33
  33  32  -34
  34  33  -35
  35  34  -36
  36  35  -37
  37  36  -38
  38  37  -39
  39  38  -40
  40  39  -41
  41  40  -42
  42  41  -43
  43  42  -44
  44  43  -45
  45  44  -46
  46  45  -47
  47  46  -48
  48  47  -49
  49  48  -50
  50  49  -51
  51  50  -52
  52  51  -53
  53  52  -54
  54  53  -55
  55  54  -56
  56  55  -57
  57  56  -58
  58  57  -59
  59  58  -60
  60  59  -61
  61  60  -62
  62  61  -63
  63  62  -64
  64  63  -65
  65  64  -66
  66  65  -67
  67  66  -68
  68  67  -69
  69  68  -70
  70  69  -71
  71  70  -72
  72  71  -73
  73  72  -74
  74  73  -75
  75  74  -76
  76  75  -77
  77  76  -78
  78  77  -79
  79  78  -80
  80  79  -81
  81  80  -82
  82  81  -83
  83  82  -84
  84  83  -85
  85  84  -86
  86  85  -87
  87  86  -88
  88  87  -89
  89  88  -90
  90  89  -91
  91  90  -92
  92  91  -93
  93  92  -94
  94  93  -95
  95  94  -96
  96  95  -97
  97  96  -98
  98  97  -99
  99  98  -100
  100  99  -101
  101  100  -102
  102  101  -103
  103  102  -104
  104  103  -105
  105  104  -106
  106  105  -107
  107  106  -108
  108  107
END connectiondata

BEGIN period  1
  1  rainfall  0.0028395280827276837
  2  rainfall  0.0028395280827276837
  3  rainfall  0.0028395280827276837
  4  rainfall  0.0028395280827276837
  5  rainfall  0.0028395280827276837
  6  rainfall  0.0028395280827276837
  7  rainfall  0.0028395280827276837
  8  rainfall  0.0028395280827276837
  9  rainfall  0.0028395280827276837
  10  rainfall  0.0028395280827276837
  11  rainfall  0.0028395280827276837
  12  rainfall  0.0028395280827276837
  13  rainfall  0.0028395280827276837
  14  rainfall  0.0028395280827276837
  15  rainfall  0.0028395280827276837
  16  rainfall  0.0028395280827276837
  17  rainfall  0.0028395280827276837
  18  rainfall  0.0028395280827276837
  19  rainfall  0.0028395280827276837
  20  rainfall  0.0028395280827276837
  21  rainfall  0.0028395280827276837
  22  rainfall  0.0028395280827276837
  23  rainfall  0.0028395280827276837
  24  rainfall  0.0028395280827276837
  25  rainfall  0.0028395280827276837
  26  rainfall  0.0028395280827276837
  27  rainfall  0.0028395280827276837
  28  rainfall  0.0028395280827276837
  29  rainfall  0.0028395280827276837
  30  rainfall  0.0028395280827276837
  31  rainfall  0.0028395280827276837
  32  rainfall  0.0028395280827276837
  33  rainfall  0.0028395280827276837
  34  rainfall  0.0028395280827276837
  35  rainfall  0.0028395280827276837
  36  rainfall  0.0028395280827276837
  37  rainfall  0.0028395280827276837
  38  rainfall  0.0028395280827276837
  39  rainfall  0.0028395280827276837
  40  rainfall  0.0028395280827276837
  41  rainfall  0.0028395280827276837
  42  rainfall  0.0028395280827276837
  43  rainfall  0.0028395280827276837
  44  rainfall  0.0028395280827276837
  45  rainfall  0.0028395280827276837
  46  rainfall  0.0028395280827276837
  47  rainfall  0.0028395280827276837
  48  rainfall  0.0028395280827276837
  49  rainfall  0.0028395280827276837
  50  rainfall  0.0028395280827276837
  51  rainfall  0.0028395280827276837
  52  rainfall  0.0028395280827276837
  53  rainfall  0.0028395280827276837
  54  rainfall  0.0028395280827276837
  55  rainfall  0.0028395280827276837
  56  rainfall  0.0028395280827276837
  57  rainfall  0.0028395280827276837
  58  rainfall  0.0028395280827276837
  59  rainfall  0.0028395280827276837
  60  rainfall  0.0028395280827276837
  61  rainfall  0.0028395280827276837
  62  rainfall  0.0028395280827276837
  63  rainfall  0.0028395280827276837
  64  rainfall  0.0028395280827276837
  65  rainfall  0.0028395280827276837
  66  rainfall  0.0028395280827276837
  67  rainfall  0.0028395280827276837
  68  rainfall  0.0028395280827276837
  69  rainfall  0.0028395280827276837
  70  rainfall  0.0028395280827276837
  71  rainfall  0.0028395280827276837
  72  rainfall  0.0028395280827276837
  73  rainfall  0.0028395280827276837
  74  rainfall  0.0028395280827276837
  75  rainfall  0.0028395280827276837
  76  rainfall  0.0028395280827276837
  77  rainfall  0.0028395280827276837
  78  rainfall  0.0028395280827276837
  79  rainfall  0.0028395280827276837
  80  rainfall  0.0028395280827276837
  81  rainfall  0.0028395280827276837
  82  rainfall  0.0028395280827276837
  83  rainfall  0.0028395280827276837
  84  rainfall  0.0028395280827276837
  85  rainfall  0.0028395280827276837
  86  rainfall  0.0028395280827276837
  87  rainfall  0.0028395280827276837
  88  rainfall  0.0028395280827276837
  89  rainfall  0.0028395280827276837
  90  rainfall  0.0028395280827276837
  91  rainfall  0.0028395280827276837
  92  rainfall  0.0028395280827276837
  93  rainfall  0.0028395280827276837
  94  rainfall  0.0028395280827276837
  95  rainfall  0.0028395280827276837
  96  rainfall  0.0028395280827276837
  97  rainfall  0.0028395280827276837
  98  rainfall  0.0028395280827276837
  99  rainfall  0.0028395280827276837
  100  rainfall  0.0028395280827276837
  101  rainfall  0.0028395280827276837
  102  rainfall  0.0028395280827276837
  103  rainfall  0.0028395280827276837
  104  rainfall  0.0028395280827276837
  105  rainfall  0.0028395280827276837
  106  rainfall  0.0028395280827276837
  107  rainfall  0.0028395280827276837
  108  rainfall  0.0028395280827276837
  1  evaporation  0.0021332801556882067
  2  evaporation  0.0021332801556882067
  3  evaporation  0.0021332801556882067
  4  evaporation  0.0021332801556882067
  5  evaporation  0.0021332801556882067
  6  evaporation  0.0021332801556882067
  7  evaporation  0.0021332801556882067
  8  evaporation  0.0021332801556882067
  9  evaporation  0.0021332801556882067
  10  evaporation  0.0021332801556882067
  11  evaporation  0.0021332801556882067
  12  evaporation  0.0021332801556882067
  13  evaporation  0.0021332801556882067
  14  evaporation  0.0021332801556882067
  15  evaporation  0.0021332801556882067
  16  evaporation  0.0021332801556882067
  17  evaporation  0.0021332801556882067
  18  evaporation  0.0021332801556882067
  19  evaporation  0.0021332801556882067
  20  evaporation  0.0021332801556882067
  21  evaporation  0.0021332801556882067
  22  evaporation  0.0021332801556882067
  23  evaporation  0.0021332801556882067
  24  evaporation  0.0021332801556882067
  25  evaporation  0.0021332801556882067
  26  evaporation  0.0021332801556882067
  27  evaporation  0.0021332801556882067
  28  evaporation  0.0021332801556882067
  29  evaporation  0.0021332801556882067
  30  evaporation  0.0021332801556882067
  31  evaporation  0.0021332801556882067
  32  evaporation  0.0021332801556882067
  33  evaporation  0.0021332801556882067
  34  evaporation  0.0021332801556882067
  35  evaporation  0.0021332801556882067
  36  evaporation  0.0021332801556882067
  37  evaporation  0.0021332801556882067
  38  evaporation  0.0021332801556882067
  39  evaporation  0.0021332801556882067
  40  evaporation  0.0021332801556882067
  41  evaporation  0.0021332801556882067
  42  evaporation  0.0021332801556882067
  43  evaporation  0.0021332801556882067
  44  evaporation  0.0021332801556882067
  45  evaporation  0.0021332801556882067
  46  evaporation  0.0021332801556882067
  47  evaporation  0.0021332801556882067
  48  evaporation  0.0021332801556882067
  49  evaporation  0.0021332801556882067
  50  evaporation  0.0021332801556882067
  51  evaporation  0.0021332801556882067
  52  evaporation  0.0021332801556882067
  53  evaporation  0.0021332801556882067
  54  evaporation  0.0021332801556882067
  55  evaporation  0.0021332801556882067
  56  evaporation  0.0021332801556882067
  57  evaporation  0.0021332801556882067
  58  evaporation  0.0021332801556882067
  59  evaporation  0.0021332801556882067
  60  evaporation  0.0021332801556882067
  61  evaporation  0.0021332801556882067
  62  evaporation  0.0021332801556882067
  63  evaporation  0.0021332801556882067
  64  evaporation  0.0021332801556882067
  65  evaporation  0.0021332801556882067
  66  evaporation  0.0021332801556882067
  67  evaporation  0.0021332801556882067
  68  evaporation  0.0021332801556882067
  69  evaporation  0.0021332801556882067
  70  evaporation  0.0021332801556882067
  71  evaporation  0.0021332801556882067
  72  evaporation  0.0021332801556882067
  73  evaporation  0.0021332801556882067
  74  evaporation  0.0021332801556882067
  75  evaporation  0.0021332801556882067
  76  evaporation  0.0021332801556882067
  77  evaporation  0.0021332801556882067
  78  evaporation  0.0021332801556882067
  79  evaporation  0.0021332801556882067
  80  evaporation  0.0021332801556882067
  81  evaporation  0.0021332801556882067
  82  evaporation  0.0021332801556882067
  83  evaporation  0.0021332801556882067
  84  evaporation  0.0021332801556882067
  85  evaporation  0.0021332801556882067
  86  evaporation  0.0021332801556882067
  87  evaporation  0.0021332801556882067
  88  evaporation  0.0021332801556882067
  89  evaporation  0.0021332801556882067
  90  evaporation  0.0021332801556882067
  91  evaporation  0.0021332801556882067
  92  evaporation  0.0021332801556882067
  93  evaporation  0.0021332801556882067
  94  evaporation  0.0021332801556882067
  95  evaporation  0.0021332801556882067
  96  evaporation  0.0021332801556882067
  97  evaporation  0.0021332801556882067
  98  evaporation  0.0021332801556882067
  99  evaporation  0.0021332801556882067
  100  evaporation  0.0021332801556882067
  101  evaporation  0.0021332801556882067
  102  evaporation  0.0021332801556882067
  103  evaporation  0.0021332801556882067
  104  evaporation  0.0021332801556882067
  105  evaporation  0.0021332801556882067
  106  evaporation  0.0021332801556882067
  107  evaporation  0.0021332801556882067
  108  evaporation  0.0021332801556882067
END period  1

BEGIN period  2
  1  rainfall  0.0019582759083262057
  2  rainfall  0.0019582759083262057
  3  rainfall  0.0019582759083262057
  4  rainfall  0.0019582759083262057
  5  rainfall  0.0019582759083262057
  6  rainfall  0.0019582759083262057
  7  rainfall  0.0019582759083262057
  8  rainfall  0.0019582759083262057
  9  rainfall  0.0019582759083262057
  10  rainfall  0.0019582759083262057
  11  rainfall  0.0019582759083262057
  12  rainfall  0.0019582759083262057
  13  rainfall  0.0019582759083262057
  14  rainfall  0.0019582759083262057
  15  rainfall  0.0019582759083262057
  16  rainfall  0.0019582759083262057
  17  rainfall  0.0019582759083262057
  18  rainfall  0.0019582759083262057
  19  rainfall  0.0019582759083262057
  20  rainfall  0.0019582759083262057
  21  rainfall  0.0019582759083262057
  22  rainfall  0.0019582759083262057
  23  rainfall  0.0019582759083262057
  24  rainfall  0.0019582759083262057
  25  rainfall  0.0019582759083262057
  26  rainfall  0.0019582759083262057
  27  rainfall  0.0019582759083262057
  28  rainfall  0.0019582759083262057
  29  rainfall  0.0019582759083262057
  30  rainfall  0.0019582759083262057
  31  rainfall  0.0019582759083262057
  32  rainfall  0.0019582759083262057
  33  rainfall  0.0019582759083262057
  34  rainfall  0.0019582759083262057
  35  rainfall  0.0019582759083262057
  36  rainfall  0.0019582759083262057
  37  rainfall  0.0019582759083262057
  38  rainfall  0.0019582759083262057
  39  rainfall  0.0019582759083262057
  40  rainfall  0.0019582759083262057
  41  rainfall  0.0019582759083262057
  42  rainfall  0.0019582759083262057
  43  rainfall  0.0019582759083262057
  44  rainfall  0.0019582759083262057
  45  rainfall  0.0019582759083262057
  46  rainfall  0.0019582759083262057
  47  rainfall  0.0019582759083262057
  48  rainfall  0.0019582759083262057
  49  rainfall  0.0019582759083262057
  50  rainfall  0.0019582759083262057
  51  rainfall  0.0019582759083262057
  52  rainfall  0.0019582759083262057
  53  rainfall  0.0019582759083262057
  54  rainfall  0.0019582759083262057
  55  rainfall  0.0019582759083262057
  56  rainfall  0.0019582759083262057
  57  rainfall  0.0019582759083262057
  58  rainfall  0.0019582759083262057
  59  rainfall  0.0019582759083262057
  60  rainfall  0.0019582759083262057
  61  rainfall  0.0019582759083262057
  62  rainfall  0.0019582759083262057
  63  rainfall  0.0019582759083262057
  64  rainfall  0.0019582759083262057