BEGIN options
  TIME_UNITS  days
END options

BEGIN dimensions
  NPER  121
END dimensions

BEGIN perioddata
   16071.00000000  1       1.00000000
      31.00000000  1       1.00000000
      28.00000000  1       1.00000000
      31.00000000  1       1.00000000
      30.00000000  1       1.00000000
      31.00000000  1       1.00000000
      30.00000000  1       1.00000000
      31.00000000  1       1.00000000
      31.00000000  1       1.00000000
      30.00000000  1       1.00000000
      31.00000000  1       1.00000000
      30.00000000  1       1.00000000
      31.00000000  1       1.00000000
      31.00000000  1       1.00000000
      28.00000000  1       1.00000000
      31.00000000  1       1.00000000
      30.00000000  1       1.00000000
      31.00000000  1       1.00000000
      30.00000000  1       1.00000000
      31.00000000  1       1.00000000
      31.00000000  1       1.00000000
      30.00000000  1       1.00000000
      31.00000000  1       1.00000000
      30.00000000  1       1.00000000
      31.00000000  1       1.00000000
      31.00000000  1       1.00000000
      29.00000000  1       1.00000000
      31.00000000  1       1.00000000
      30.00000000  1       1.00000000
      31.00000000  1       1.00000000
      30.00000000  1       1.00000000
      31.00000000  1       1.00000000
      31.00000000  1       1.00000000
      30.00000000  1       1.00000000
      31.00000000  1       1.00000000
      30.00000000  1       1.00000000
      31.00000000  1       1.00000000
      31.00000000  1       1.00000000
      28.00000000  1       1.00000000
      31.00000000  1       1.00000000
      30.00000000  1       1.00000000
      31.00000000  1       1.00000000
      30.00000000  1       1.00000000
      31.00000000  1       1.00000000
      31.00000000  1       1.00000000
      30.00000000  1       1.00000000
      31.00000000  1       1.00000000
      30.00000000  1       1.00000000
      31.00000000  1       1.00000000
      31.00000000  1       1.00000000
      28.00000000  1       1.00000000
      31.00000000  1       1.00000000
      30.00000000  1       1.00000000
      31.00000000  1       1.00000000
      30.00000000  1       1.00000000
      31.00000000  1       1.00000000
      31.00000000  1       1.00000000
      30.00000000  1       1.00000000
      31.00000000  1       1.00000000
      30.00000000  1       1.00000000
      31.00000000  1       1.00000000
      31.00000000  1       1.00000000
      28.00000000  1       1.00000000
      31.00000000  1       1.00000000
      30.00000000  1       1.00000000
      31.00000000  1       1.00000000
      30.00000000  1       1.00000000
      31.00000000  1       1.00000000
      31.00000000  1       1.00000000
      30.00000000  1       1.00000000
      31.00000000  1       1.00000000
      30.00000000  1       1.00000000
      31.00000000  1       1.00000000
      31.00000000  1       1.00000000
      29.00000000  1       1.00000000
      31.00000000  1       1.00000000
      30.00000000  1       1.00000000
      31.00000000  1       1.00000000
      30.00000000  1       1.00000000
      31.00000000  1       1.00000000
      31.00000000  1       1.00000000
      30.00000000  1       1.00000000
      31.00000000  1       1.00000000
      30.00000000  1       1.00000000
      31.00000000  1       1.00000000
      31.00000000  1       1.00000000
      28.00000000  1       1.00000000
      31.00000000  1       1.00000000
      30.00000000  1       1.00000000
      31.00000000  1       1.00000000
      30.00000000  1       1.00000000
      31.00000000  1       1.00000000
      31.00000000  1       1.00000000
      30.00000000  1       1.00000000
      31.00000000  1       1.00000000
      30.00000000  1       1.00000000
      31.00000000  1       1.00000000
      31.00000000  1       1.00000000
      28.00000000  1       1.00000000
      31.00000000  1       1.00000000
      30.00000000  1       1.00000000
      31.00000000  1       1.00000000
      30.00000000  1       1.00000000
      31.00000000  1       1.00000000
      31.00000000  1       1.00000000
      30.00000000  1       1.00000000
      31.00000000  1       1.00000000
      30.00000000  1       1.00000000
      31.00000000  1       1.00000000
      31.00000000  1       1.00000000
      28.00000000  1       1.00000000
      31.00000000  1       1.00000000
      30.00000000  1       1.00000000
      31.00000000  1       1.00000000
      30.00000000  1       1.00000000
      31.00000000  1       1.00000000
      31.00000000  1       1.00000000
      30.00000000  1       1.00000000
      31.00000000  1       1.00000000
      30.00000000  1       1.00000000
      31.00000000  1       1.00000000
END perioddata

