BEGIN options
  BOUNDNAMES
END options

BEGIN dimensions
  MAXBOUND  3
END dimensions

BEGIN period  2
  5 2571 -1.90000000E+03 P3
  5 2244 -7.60000000E+03 P1
  5 2240 -7.60000000E+03 P2
END period  2

