BEGIN options
END options

BEGIN griddata
  strt  LAYERED
    INTERNAL  FACTOR  1.0
          12.97277596      12.98551766      13.00478942      13.02200940      13.03132717      13.03208894      13.02447534      13.01051428      12.99278567      12.97400917      12.94984249      12.88090383      12.68254352      12.73986411      12.80227382      12.86246031      12.92310910      12.98321871      13.04542220      13.10533447      13.15960957      13.21169423      13.27227362      13.33247525      13.37183813
          12.98396949      13.00178343      13.02834016      13.05156256      13.06519423      13.06638584      13.05289645      13.03112444      13.00937198      12.99457533      12.98603946      12.96761912      12.93149770      12.96058157      13.00538624      13.05305779      13.10110501      13.14123522      13.16346119      13.10349954      13.15554562      13.20795777      13.26430032      13.32353098      13.36316980
          13.00547943      13.03482290      13.08120157      13.12169133      13.14428873      13.14399789      13.11595725      13.07418908      13.03891987      13.01950586      13.02184139      13.03347948      13.04791707      13.07955482      13.11985798      13.16398943      13.20794259      13.24693544      13.27898758      13.29047494      13.32445494      13.36607155      13.40262700      13.41531251      13.33718737
          13.03755310      13.08631959      13.17875439      14.06603098      14.06603098      14.06603098      14.06603098      13.13671514      13.07680143      13.04599813      13.05004129      13.07345451      13.10532583      13.14426708      13.18522513      13.23075379      13.27624326      13.31997196      13.35792377      13.38859434      13.42094955      13.44396868      13.44634315      13.41036854      13.29023112
          13.06610701      13.13147835      14.06603098      14.06603098      14.06603098      14.06603098      14.06603098      13.18392691      13.10779356      13.06762221      13.06547290      13.09315089      13.13066397      13.17389650      13.22113115      13.26795626      13.31578053      13.36104746      13.39930269      13.43115796      13.45608240      13.46128520      13.43027746      13.35113415      13.24474304
          13.06889562      13.14791689      14.06603098      14.06603098      14.06603098      14.06603098      14.06603098      13.20912448      13.12497130      13.07715768      13.06852307      13.09270380      13.13131433      13.17855713      13.22995745      13.27844455      13.32346324      13.36529349      13.40283272      13.43319576      13.45002224      13.43806615      13.36796023      13.18913716      13.19528663
          13.02765257      13.11560199      14.06603098      14.06603098      14.06603098      14.06603098      14.06603098      13.22023414      13.12945716      13.07517074      13.05800987      13.07663652      13.11235765      13.15761812      13.21027191      13.25806964      13.29912489      13.33470273      13.36923392      13.39473101      13.40136174      13.37825070      13.29885696      13.12954766      13.13795555
          12.94367369      13.03509407      14.06603098      14.06603098      14.06603098      14.06603098      14.06603098      13.22955353      13.12756209      13.06135977      13.03400296      13.04552130      13.07650106      13.11621314      13.16280124      13.20517827      13.24283913      13.27145894      13.29602990      13.31132478      13.30547082      13.27930683      13.20338945      13.05342564      13.06118101
          12.83153576      12.92201627      14.06603098      14.06603098      14.06603098      14.06603098      14.06603098      13.25571508      13.12279739      13.04019042      12.99993893      12.99966225      13.02221034      13.05668049      13.09534607      13.12940332      13.15635603      13.17422654      13.18813562      13.19089542      13.17587302      13.13946414      13.06361092      12.96060915      12.97051512
          12.67941476      12.76789513      14.06603098      14.06603098      14.06603098      14.06603098      14.06603098      14.06603098      13.11595858      13.01146430      12.95201117      12.93951905      12.95161458      12.97418397      12.99863200      13.02202630      13.03361615      13.03049926      13.03764522      13.03799539      13.01540510      12.94820725      12.83372818      12.85553165      12.87383673
          12.48045839      12.55662110      12.72041468      14.06603098      14.06603098      14.06603098      14.06603098      14.06603098      13.12885619      12.96973666      12.88267965      12.85841099      12.86019792      12.86530992      12.86890712      12.86790720      12.84693215      12.80533844      12.81490810      12.83127901      12.81893301      12.71939530      12.73550989      12.75216903      12.76549046
          12.26006791      12.33041151      12.48557351      14.06603098      14.06603098      14.06603098      14.06603098      14.06603098      14.06603098      12.88462006      12.78412926      12.74874748      12.73684139      12.72067552      12.69438697      12.66868685      12.59973099      12.46620504      12.51273315      12.56089776      12.59691028      12.62289067      12.63974893      12.65111984      12.65686061
          11.98996551      12.07348914      12.22944312      12.44434944      14.06603098      14.06603098      14.06603098      14.06603098      14.06603098      12.76880254      12.65325937      12.60053906      12.56598227      12.51419061      12.43962420      12.41808797      12.31267218      12.36828017      12.41898068      12.46461358      12.49862425      12.52448222      12.54412137      12.55620142      12.56235960
          11.59649638      11.73969251      11.93278225      12.16229770      14.06603098      14.06603098      14.06603098      14.06603098      14.06603098      12.59061627      12.45498680      12.38656304      12.33317455      12.24042825      12.02612727      12.09483507      12.18113285      12.25488746      12.31101227      12.36039016      12.40064442      12.42827449      12.44741354      12.45929438      12.46566927
          10.91917746      11.28117764      11.55047654      11.79387646      14.06603098      14.06603098      14.06603098      14.06603098      14.06603098      12.31682303      12.16188851      12.07799927      12.01429850      11.97446437      11.87552668      11.95133202      12.03465696      12.11589780      12.18383392      12.24410261      12.29241046      12.32617834      12.34658269      12.35768338      12.36330436
          10.64303532      10.67188132      11.03947316      11.23770050      11.40814876      14.06603098      14.06603098      14.06603098      14.06603098      11.90449875      11.74847251      11.60961539      11.42274092      11.56301418      11.69437116      11.80044506      11.88870356      11.96470037      12.03806532      12.10678507      12.16496222      12.20810412      12.23727966      12.25194244      12.25872765
          10.30958882      10.31325649      10.33449965      10.37195697      10.43388467      10.88221661      11.08183464      11.10365397      11.09988101      11.15643111      11.11836431      10.94896240      11.11242620      11.28912610      11.53424277      11.71490392      11.81345678      11.80271207      11.87644412      11.94553897      12.01062963      12.06692908      12.10519259      12.12747134      12.13633648
           9.89946925       9.89511559       9.89216806       9.92409845       9.96436937       9.98754712       9.98489050       9.99008610      10.04999735      10.17920637      10.36503552      10.57218896      10.79223434      10.98419526      11.17307627      11.50390315      11.66157488      11.71263776      11.68765640      11.75952799      11.82528458      11.89162654      11.94408660      11.98108180      11.99532803
           9.44344469       9.42907014       9.40781870       9.41013088       9.40773767       9.40486754       9.40120132       9.41200806       9.48312671       9.63825296       9.87743877      10.10489967      10.33962528      10.68440044      10.95265733      11.21569624      11.43053746      11.53161902      11.55909789      11.54345092      11.62381346      11.69753065      11.76420325      11.81885549      11.84716089
           8.99616634       8.95283878       8.92196627       8.89734306       8.86129453       8.82682834       8.79669970       8.74860052       8.79265460       8.98396104       9.25932405       9.54989371       9.77043623      10.04216522      10.33331820      10.59996855      11.09565555      11.26625599      11.32474561      11.35620601      11.40316649      11.49867068      11.57919539      11.64360805      11.68458942
           8.51672414       8.45628844       8.41619712       8.37869887       8.31538387       8.19031143       8.00473381       7.86034294       7.84175249       8.11488031       8.50017628       8.90225734       9.20414738       9.49788002      10.04808546      10.41038842      10.76018217      10.92893539      10.99046411      11.01269169      11.15787798      11.28349778      11.37935695      11.45055873      11.49749239
           7.95391279       7.90428612       7.83472765       7.73743586       7.59197581       7.31553166       6.92035925       6.55557873       6.33887681       6.85614692       7.49527151       8.06374538       8.50997983       9.08337487       9.58762025       9.95969160      10.29503123      10.47506544      10.54127538      10.74037350      10.90462535      11.04310206      11.13951023      11.20644476      11.24422370
           7.37009683       7.32555694       7.20527004       6.99336846       6.69131661       6.24866164       5.65468214       4.83428259       1.89061279       4.92192050       6.12862403       7.04912574       7.68157834       8.19406682       8.94164096       9.41815338       9.72617854       9.89062564      10.19769005      10.44442029      10.63044838      10.76777404      10.85505237      10.90611146      10.92343925
           6.85263620       6.77513066       6.59888113       6.29713946       5.88014431       5.35304929       4.64757650       3.74312483       1.55437950       3.63778198       4.86368073       5.99465801       6.81955532       7.48339078       8.09948404       8.84778745       9.09012992       9.47952039       9.82893289      10.09895543      10.30401807      10.44568085      10.52585886      10.56963236      10.58270122
           6.40741945       6.27897756       6.05592515       5.72908099       5.29956201       4.74626852       3.99854062       3.11470365       1.53495974       2.99895772       4.06972515       5.17197947       6.07022536       6.78879696       7.48191937       8.29514496       8.75208114       9.02100443       9.37311058       9.64472529       9.82801919      10.01077820      10.13461588      10.19385770      10.21603995
           5.98763324       5.82673351       5.59444390       5.27893416       4.86237567       4.29930378       3.55283543       2.72414244       1.47654323       2.66065316       3.59694750       4.56252781       5.41490739       6.16226268       6.88029463       7.51355952       8.03220035       8.47175621       8.81810223       9.09670047       9.28050486       9.47070001       9.66105518       9.76236583       9.79806498
           5.60486480       5.44039780       5.22259882       4.91421825       4.50367321       3.92193250       3.20884034       2.45649226       1.32299620       2.44513409       3.30926828       4.16528697       4.94125925       5.66671479       6.34228321       6.99506161       7.54304804       7.98047637       8.33044203       8.60960137       8.83297552       9.01557390       9.19807525       9.31701677       9.36934631
           5.20125318       5.07215957       4.87417413       4.58059928       4.17690388       3.59931683       2.90036053       2.19403401       1.15099385       2.24718905       3.08300972       3.89698757       4.61187066       5.29102693       5.94468595       6.55556932       7.12201444       7.56470713       7.94324295       8.25411156       8.47166843       8.65747237       8.81996772       8.93534728       8.99620701
           4.75500374       4.68553911       4.51544991       4.23805510       3.85257056       3.28533183       2.58581028       1.93139026       1.01060357       2.05912884       2.86038083       3.66211680       4.39249919       5.03862491       5.66480092       6.26421160       6.81033763       7.25111184       7.60173224       7.92493385       8.15661271       8.34420338       8.50561988       8.62955570       8.68233164
           4.35810047       4.31454989       4.16772719       3.89191505       3.50826404       2.97250333       2.31928512       1.70792093       0.87234550       1.91597449       2.67407201       3.42716404       4.16886217       4.84559306       5.45949943       6.06527088       6.61558757       7.04570352       7.37451274       7.66362762       7.89741154       8.07066583       8.22748396       8.35380151       8.42028755
           4.03175163       3.98232526       3.84329346       3.56700906       3.18653682       2.69687193       2.09754678       1.52302654       0.74649652       1.78393562       2.52734532       3.24243885       3.94850996       4.65824619       5.30814987       5.90613296       6.45632833       6.87965240       7.19858383       7.47029229       7.69699543       7.86903524       8.01218832       8.12351448       8.19531630
           3.74393882       3.68206329       3.54066520       3.27076806       2.89853271       2.44284962       1.89382162       1.36059461       0.62962502       1.63606109       2.36999145       3.07281094       3.79542242       4.50300614       5.17059324       5.79285788       6.32022896       6.72099776       7.03300656       7.30575340       7.52995438       7.70260146       7.83815110       7.94378320       8.00475337
           3.49860891       3.42970979       3.26587076       2.98793452       2.65723126       2.23071900       1.71765028       1.21586433       0.54748357       1.48186053       2.18395022       2.91839157       3.69564604       4.41894891       5.08013019       5.68600291       6.18920073       6.58115086       6.88906034       7.15636638       7.38255984       7.55855168       7.69178354       7.79205705       7.84777487
           3.31018339       3.23279415       3.05700834       2.78803346       2.45930867       2.04980156       1.57614377       1.10981959       0.45619256       1.34195822       1.99260855       2.75059546       3.59917051       4.37023575       5.03550396       5.61171184       6.10189132       6.48122190       6.77358824       7.03587836       7.26089331       7.43848208       7.56904056       7.66380198       7.71850469
           3.13978597       3.05724911       2.87297337       2.61477704       2.28800240       1.90508036       1.47026597       1.02864646       0.39902711       1.22270658       1.83965613       2.57766536       3.45439726       4.29023881       4.98772613       5.56287459       6.03820051       6.40304556       6.68668575       6.93862519       7.15266923       7.33194180       7.46459351       7.55803769       7.60837129
           2.99724700       2.90544792       2.71824532       2.45734103       2.14893039       1.80506540       1.40383553       0.96893623       0.30185217       1.15340125       1.76871142       2.45767071       3.26487533       4.14686553       4.93028256       5.52153233       5.98955656       6.35359817       6.63174525       6.86647161       7.06242422       7.23600743       7.37395061       7.46963461       7.52145496
           2.88448812       2.78551890       2.58711363       2.32146183       2.05282845       1.75454850       1.36874576       0.90898075       0.18799329       1.08745687       1.73009259       2.43001230       3.18215016       4.00940779       4.81376685       5.44119547       5.93338744       6.31698168       6.59603177       6.82118094       7.00747014       7.16624905       7.30067647       7.39871888       7.45134892
           2.77564016       2.67890386       2.48185257       2.23643207       1.98901386       1.70555066       1.32829033       0.85578454       0.08198620       1.03800585       1.72886199       2.46690834       3.17179870       3.90909997       4.65596532       5.30301340       5.84599107       6.26499340       6.56474736       6.79150351       6.97744150       7.12990782       7.25049744       7.34486889       7.39795673
           2.67532715       2.58940523       2.41308140       2.18132407       1.94451410       1.66440123       1.29035939       0.82378111      -0.01650150       1.01756073       1.73604178       2.49418335       3.20187078       3.86546209       4.52678814       5.16216767       5.75258608       6.22015409       6.54161192       6.77535012       6.95700389       7.10471326       7.22338310       7.31212558       7.36185494
           2.62480296       2.54494430       2.38008590       2.16343128       1.92433098       1.63857567       1.26694981       0.79728282      -0.04864087       0.99472984       1.74317533       2.48838152       3.18954188       3.85165764       4.48391369       5.10481605       5.70334847       6.19558172       6.53329175       6.76791750       6.94562330       7.09117128       7.21143067       7.29618543       7.34315492
    INTERNAL  FACTOR  1.0
          12.97271362      12.98545899      13.00473176      13.02195306      13.03126611      13.03202433      13.02441955      13.01047079      12.99273733      12.97395921      12.94977468      12.88078893      12.68071675      12.73869255      12.80116777      12.86144824      12.92212880      12.98234761      13.04464138      13.10488556      13.15920911      13.21120819      13.27153403      13.33162781      13.37087041
          12.98390277      13.00172552      13.02827970      13.05150124      13.06513007      13.06632204      13.05284038      13.03107327      13.00932267      12.99452708      12.98595717      12.96749967      12.93135671      12.96044701      13.00525980      13.05292915      13.10098217      13.14111396      13.16331352      13.10222174      13.15467045      13.20705244      13.26322625      13.32225774      13.36200922
          13.00539339      13.03474583      13.08112962      13.12189705      13.14452831      13.14424084      13.11613705      13.07413109      13.03886386      13.01945463      13.02176101      13.03336251      13.04778902      13.07942714      13.11974033      13.16386699      13.20782236      13.24681915      13.27884814      13.29031094      13.32427578      13.36587218      13.40238962      13.41499264      13.33554458
          13.03743153      13.08621284      13.17916592      13.45495431      13.51934219      13.50144776      13.40397137      13.13687441      13.07673762      13.04592313      13.04994139      13.07334602      13.10520957      13.14415080      13.18510729      13.23061570      13.27610240      13.31981824      13.35777645      13.38842965      13.42075726      13.44378846      13.44614256      13.41013285      13.28890188
          13.06599708      13.13166541      13.47340220      13.62418377      13.66858129      13.63560145      13.50835290      13.18414072      13.10772099      13.06754456      13.06537039      13.09304394      13.13055724      13.17377518      13.22098742      13.26780680      13.31560638      13.36087391      13.39913292      13.43099728      13.45590524      13.46109193      13.43008692      13.35091621      13.24378009
          13.06879352      13.14818581      13.54113099      13.68864197      13.72767555      13.68991635      13.55149568      13.20934223      13.12490199      13.07708175      13.06844911      13.09260506      13.13119664      13.17841844      13.22978985      13.27827740      13.32330296      13.36510730      13.40266125      13.43300297      13.44979981      13.43780823      13.36771204      13.18758805      13.19477775
          13.02753024      13.11588466      13.55865071      13.71335882      13.75103464      13.71233650      13.57261016      13.22044813      13.12938380      13.07510194      13.05794685      13.07653986      13.11223772      13.15745795      13.21009342      13.25789338      13.29895937      13.33452338      13.36901774      13.39448382      13.40108616      13.37797719      13.29859226      13.12833277      13.13745888
          12.94354443      13.03538235      13.53385916      13.71039146      13.75398211      13.71809873      13.58464811      13.22974586      13.12747900      13.06127645      13.03392351      13.04541105      13.07636574      13.11606151      13.16262754      13.20501341      13.24266086      13.27129501      13.29582074      13.31106378      13.30522803      13.27903499      13.20313369      13.05231422      13.06067434
          12.83142467      12.92232332      13.44696861      13.66334434      13.73219593      13.71571290      13.60061408      13.25606672      13.12269744      13.04010792      12.99986260      12.99955145      13.02206901      13.05652704      13.09518554      13.12925324      13.15618964      13.17405092      13.18794669      13.19069312      13.17568939      13.13922487      13.06334370      12.95964516      12.97006586
          12.67929527      12.76816987      13.27323116      13.56441895      13.68075564      13.70204045      13.63577393      13.45189395      13.11614672      13.01136805      12.95191785      12.93940107      12.95148297      12.97402321      12.99846085      13.02185137      13.03342577      13.03032048      13.03744804      13.03779087      13.01523220      12.94800925      12.83248963      12.85498507      12.87338805
          12.48033826      12.55647434      12.72130616      13.35131981      13.57591841      13.65773300      13.64512393      13.51666370      13.12921242      12.96962439      12.88256417      12.85826203      12.86005155      12.86515120      12.86874777      12.86772731      12.84670892      12.80514412      12.81471437      12.83109177      12.81875103      12.71818992      12.73503686      12.75169731      12.76500840
          12.25992763      12.33028943      12.48599629      13.09238844      13.43082075      13.59285824      13.64341886      13.59006699      13.36665508      12.88487134      12.78401691      12.74858341      12.73667384      12.72050136      12.69420351      12.66849534      12.59951911      12.46466162      12.51168279      12.55985511      12.59600967      12.62237576      12.63934533      12.65075246      12.65649315
          11.98980010      12.07332154      12.22927140      12.44544372      13.20660972      13.49560869      13.59828154      13.58246033      13.38893385      12.76914994      12.65312528      12.60034724      12.56577315      12.51396445      12.43941771      12.41787431      12.31099704      12.36771184      12.41840657      12.46403181      12.49818895      12.52409422      12.54377067      12.55587138      12.56204968
          11.59626854      11.73949397      11.93255910      12.16280173      12.96975813      13.34185114      13.50204405      13.50545274      13.30883040      12.59104512      12.45474980      12.38629080      12.33290009      12.24018487      12.02406274      12.09355903      12.18027057      12.25427530      12.31045574      12.35989947      12.40024156      12.42794509      12.44708914      12.45898936      12.46535908
          10.91638895      11.28090073      11.55020784      11.79429541      12.54457794      13.04834562      13.27998338      13.30237381      13.10267377      12.31725363      12.16159832      12.07767127      12.01393232      11.97416212      11.87450568      11.95071813      12.03398489      12.11528126      12.18326363      12.24359205      12.29197768      12.32580956      12.34629356      12.35740596      12.36302763
          10.64202651      10.66913333      11.03912555      11.23735565      11.40950064      12.39876514      12.74630134      12.76909040      12.61313826      11.90479225      11.74812284      11.60919671      11.41955821      11.56143694      11.69344757      11.79947157      11.88780813      11.96409414      12.03751229      12.10626440      12.16452678      12.20772993      12.23697003      12.25166726      12.25845017
          10.30848374      10.31199286      10.33217167      10.36941330      10.43009048      10.88295729      11.08265716      11.10455737      11.10067521      11.15591644      11.11787738      10.94611737      11.11117637      11.28773946      11.53391992      11.71458108      11.81318985      11.80166993      11.87586136      11.94495062      12.01011699      12.06648593      12.10479108      12.12714917      12.13602771
           9.89824426       9.89388191       9.89091801       9.92290304       9.96275931       9.98425133       9.98109998       9.98689648      10.04715282      10.17657668      10.36295379      10.57073040      10.79088613      10.98291516      11.17098085      11.50356099      11.66127789      11.71239088      11.68645266      11.75894915      11.82478889      11.89111988      11.94367221      11.98074308      11.99502788
           9.44222358       9.42776718       9.40658438       9.40892829       9.40626452       9.40303026       9.39943850       9.41051984       9.48158709       9.63652197       9.87533432      10.10295468      10.33717731      10.68387985      10.95210061      11.21524727      11.43022765      11.53135162      11.55883005      11.54240519      11.62329078      11.69705156      11.76379167      11.81847397      11.84683787
           8.99498849       8.95160699       8.92084899       8.89622019       8.85999288       8.82507521       8.79466143       8.74688982       8.79087583       8.98194137       9.25684308       9.54791357       9.76867168      10.04021584      10.33062954      10.59643136      11.09526278      11.26598453      11.32450608      11.35598012      11.40247775      11.49819566      11.57877751      11.64319061      11.68418856
           8.51511403       8.45498653       8.41491304       8.37738962       8.31389025       8.18832836       8.00201617       7.85834874       7.83980438       8.11235453       8.49714129       8.89897305       9.20216805       9.49517126      10.04740525      10.40987572      10.75979071      10.92860956      10.99021246      11.01157452      11.15731377      11.28296228      11.37885294      11.45004757      11.49699066
           7.95208047       7.90294956       7.83337636       7.73572885       7.58975848       7.31286254       6.91764547       6.55311143       6.33667197       6.85281765       7.49120353       8.06025722       8.50688764       9.08261796       9.58697999       9.95927214      10.29453289      10.47470713      10.53988904      10.73972775      10.90407464      11.04251270      11.13888906      11.20577982      11.24342228
           7.36830720       7.32407148       7.20387332       6.99182346       6.68902555       6.24597491       5.65206089       4.83274384       2.02490543       4.91845471       6.12363692       7.04511609       7.67883923       8.19070338       8.94103861       9.41777449       9.72569836       9.88886420      10.19684269      10.44361944      10.62975722      10.76695116      10.85428963      10.90533610      10.92262914
           6.85119302       6.77372566       6.59753613       6.29586050       5.87866463       5.35140917       4.64563247       3.74190189       1.62726912       3.63583351       4.86055776       5.99168794       6.81737329       7.48095830       8.09641867       8.84729619       9.08770557       9.47838715       9.82781721      10.09786619      10.30298002      10.44469218      10.52498033      10.56872921      10.58187772
           6.40586018       6.27759080       6.05450742       5.72790009       5.29844554       4.74504051       3.99726617       3.11381344       1.57956952       2.99777189       4.06757005       5.16939718       6.06825133       6.78671050       7.47910028       8.29442187       8.75137326       9.01940438       9.37138925       9.64303469       9.82644456      10.00918991      10.13360941      10.19283594      10.21514980
           5.98595868       5.82542412       5.59324723       5.27780079       4.86140152       4.29816892       3.55168779       2.72342891       1.51036349       2.65981045       3.59538560       4.56075978       5.41331758       6.16013398       6.87773930       7.51106246       8.02974157       8.47004073       8.81608644       9.09503807       9.27942162       9.46952198       9.65997584       9.76131514       9.79707871
           5.60255825       5.43912334       5.22143455       4.91307482       4.50255457       3.92078451       3.20781317       2.45580873       1.35509208       2.44429836       3.30792226       4.16384933       4.93972214       5.66477189       6.34022524       6.99269820       7.54117988       7.97883301       8.32896563       8.60852152       8.83211635       9.01462498       9.19701015       9.31604397       9.36860834
           5.19780458       5.07047467       4.87275108       4.57924764       4.17533693       3.59787051       2.89913813       2.19328679       1.18162769       2.24631191       3.08167849       3.89570806       4.61054883       5.28935032       5.94295590       6.55366396       7.12017703       7.56330860       7.94184774       8.25322515       8.47091338       8.65673719       8.81909487       8.93456940       8.99553608
           4.75204314       4.68354540       4.51370318       4.23658420       3.85077542       3.28313203       2.58433779       1.93053596       1.03778596       2.05827285       2.85909478       3.66079356       4.39123832       5.03735686       5.66335354       6.26282152       6.80906798       7.25010670       7.60079341       7.92402116       8.15591801       8.34341156       8.50489843       8.62890016       8.68178422