BEGIN options
  BOUNDNAMES
  PRINT_INPUT
  PRINT_STAGE
  STAGE  FILEOUT  sv.lak.hds
  OBS6  FILEIN  sv.lak.obs
  MOVER
END options

BEGIN dimensions
  NLAKES  1
END dimensions

BEGIN packagedata
  1      13.00000000  105  lake_harbaugh
END packagedata

BEGIN connectiondata
  1  1  1 3 4  horizontal  0.01      -5.00000000      13.13000000     250.00000000     500.00000000
  1  2  1 4 3  horizontal  0.01      -5.00000000      13.06000000     250.00000000     500.00000000
  1  3  2 4 4  vertical  0.01       0.00000000       0.00000000       0.00000000       0.00000000
  1  4  1 3 5  horizontal  0.01      -5.00000000      13.12000000     250.00000000     500.00000000
  1  5  2 4 5  vertical  0.01       0.00000000       0.00000000       0.00000000       0.00000000
  1  6  1 3 6  horizontal  0.01      -5.00000000      13.13000000     250.00000000     500.00000000
  1  7  2 4 6  vertical  0.01       0.00000000       0.00000000       0.00000000       0.00000000
  1  8  1 3 7  horizontal  0.01      -5.00000000      13.20000000     250.00000000     500.00000000
  1  9  1 4 8  horizontal  0.01      -5.00000000      13.20000000     250.00000000     500.00000000
  1  10  2 4 7  vertical  0.01       0.00000000       0.00000000       0.00000000       0.00000000
  1  11  1 4 3  horizontal  0.01      -5.00000000      13.06000000     250.00000000     500.00000000
  1  12  1 5 2  horizontal  0.01      -5.00000000      13.10000000     250.00000000     500.00000000
  1  13  2 5 3  vertical  0.01       0.00000000       0.00000000       0.00000000       0.00000000
  1  14  2 5 4  vertical  0.01       0.00000000       0.00000000       0.00000000       0.00000000
  1  15  2 5 5  vertical  0.01       0.00000000       0.00000000       0.00000000       0.00000000
  1  16  2 5 6  vertical  0.01       0.00000000       0.00000000       0.00000000       0.00000000
  1  17  1 5 8  horizontal  0.01      -5.00000000      13.14000000     250.00000000     500.00000000
  1  18  2 5 7  vertical  0.01       0.00000000       0.00000000       0.00000000       0.00000000
  1  19  1 6 2  horizontal  0.01      -5.00000000      13.07000000     250.00000000     500.00000000
  1  20  2 6 3  vertical  0.01       0.00000000       0.00000000       0.00000000       0.00000000
  1  21  2 6 4  vertical  0.01       0.00000000       0.00000000       0.00000000       0.00000000
  1  22  2 6 5  vertical  0.01       0.00000000       0.00000000       0.00000000       0.00000000
  1  23  2 6 6  vertical  0.01       0.00000000       0.00000000       0.00000000       0.00000000
  1  24  1 6 8  horizontal  0.01      -5.00000000      13.13000000     250.00000000     500.00000000
  1  25  2 6 7  vertical  0.01       0.00000000       0.00000000       0.00000000       0.00000000
  1  26  1 7 2  horizontal  0.01      -5.00000000      13.06000000     250.00000000     500.00000000
  1  27  2 7 3  vertical  0.01       0.00000000       0.00000000       0.00000000       0.00000000
  1  28  2 7 4  vertical  0.01       0.00000000       0.00000000       0.00000000       0.00000000
  1  29  2 7 5  vertical  0.01       0.00000000       0.00000000       0.00000000       0.00000000
  1  30  2 7 6  vertical  0.01       0.00000000       0.00000000       0.00000000       0.00000000
  1  31  1 7 8  horizontal  0.01      -5.00000000      13.12000000     250.00000000     500.00000000
  1  32  2 7 7  vertical  0.01       0.00000000       0.00000000       0.00000000       0.00000000
  1  33  1 8 2  horizontal  0.01      -5.00000000      13.05000000     250.00000000     500.00000000
  1  34  2 8 3  vertical  0.01       0.00000000       0.00000000       0.00000000       0.00000000
  1  35  2 8 4  vertical  0.01       0.00000000       0.00000000       0.00000000       0.00000000
  1  36  2 8 5  vertical  0.01       0.00000000       0.00000000       0.00000000       0.00000000
  1  37  2 8 6  vertical  0.01       0.00000000       0.00000000       0.00000000       0.00000000
  1  38  1 8 8  horizontal  0.01      -5.00000000      13.11000000     250.00000000     500.00000000
  1  39  2 8 7  vertical  0.01       0.00000000       0.00000000       0.00000000       0.00000000
  1  40  1 9 2  horizontal  0.01      -5.00000000      13.03000000     250.00000000     500.00000000
  1  41  2 9 3  vertical  0.01       0.00000000       0.00000000       0.00000000       0.00000000
  1  42  2 9 4  vertical  0.01       0.00000000       0.00000000       0.00000000       0.00000000
  1  43  2 9 5  vertical  0.01       0.00000000       0.00000000       0.00000000       0.00000000
  1  44  2 9 6  vertical  0.01       0.00000000       0.00000000       0.00000000       0.00000000
  1  45  1 9 8  horizontal  0.01      -5.00000000      13.06000000     250.00000000     500.00000000
  1  46  2 9 7  vertical  0.01       0.00000000       0.00000000       0.00000000       0.00000000
  1  47  1 10 2  horizontal  0.01      -5.00000000      13.02000000     250.00000000     500.00000000
  1  48  1 11 3  horizontal  0.01      -5.00000000      12.99000000     250.00000000     500.00000000
  1  49  2 10 3  vertical  0.01       0.00000000       0.00000000       0.00000000       0.00000000
  1  50  2 10 4  vertical  0.01       0.00000000       0.00000000       0.00000000       0.00000000
  1  51  2 10 5  vertical  0.01       0.00000000       0.00000000       0.00000000       0.00000000
  1  52  2 10 6  vertical  0.01       0.00000000       0.00000000       0.00000000       0.00000000
  1  53  2 10 7  vertical  0.01       0.00000000       0.00000000       0.00000000       0.00000000
  1  54  1 9 8  horizontal  0.01      -5.00000000      13.06000000     250.00000000     500.00000000
  1  55  1 10 9  horizontal  0.01      -5.00000000      13.14000000     250.00000000     500.00000000
  1  56  2 10 8  vertical  0.01       0.00000000       0.00000000       0.00000000       0.00000000
  1  57  1 11 3  horizontal  0.01      -5.00000000      12.99000000     250.00000000     500.00000000
  1  58  2 11 4  vertical  0.01       0.00000000       0.00000000       0.00000000       0.00000000
  1  59  2 11 5  vertical  0.01       0.00000000       0.00000000       0.00000000       0.00000000
  1  60  2 11 6  vertical  0.01       0.00000000       0.00000000       0.00000000       0.00000000
  1  61  2 11 7  vertical  0.01       0.00000000       0.00000000       0.00000000       0.00000000
  1  62  1 11 9  horizontal  0.01      -5.00000000      13.07000000     250.00000000     500.00000000
  1  63  2 11 8  vertical  0.01       0.00000000       0.00000000       0.00000000       0.00000000
  1  64  1 12 3  horizontal  0.01      -5.00000000      12.94000000     250.00000000     500.00000000
  1  65  1 13 4  horizontal  0.01      -5.00000000      12.95000000     250.00000000     500.00000000
  1  66  2 12 4  vertical  0.01       0.00000000       0.00000000       0.00000000       0.00000000
  1  67  2 12 5  vertical  0.01       0.00000000       0.00000000       0.00000000       0.00000000
  1  68  2 12 6  vertical  0.01       0.00000000       0.00000000       0.00000000       0.00000000
  1  69  2 12 7  vertical  0.01       0.00000000       0.00000000       0.00000000       0.00000000
  1  70  2 12 8  vertical  0.01       0.00000000       0.00000000       0.00000000       0.00000000
  1  71  1 11 9  horizontal  0.01      -5.00000000      13.07000000     250.00000000     500.00000000
  1  72  1 12 10  horizontal  0.01      -5.00000000      13.16000000     250.00000000     500.00000000
  1  73  2 12 9  vertical  0.01       0.00000000       0.00000000       0.00000000       0.00000000
  1  74  1 13 4  horizontal  0.01      -5.00000000      12.95000000     250.00000000     500.00000000
  1  75  2 13 5  vertical  0.01       0.00000000       0.00000000       0.00000000       0.00000000
  1  76  2 13 6  vertical  0.01       0.00000000       0.00000000       0.00000000       0.00000000
  1  77  2 13 7  vertical  0.01       0.00000000       0.00000000       0.00000000       0.00000000
  1  78  2 13 8  vertical  0.01       0.00000000       0.00000000       0.00000000       0.00000000
  1  79  1 13 10  horizontal  0.01      -5.00000000      13.09000000     250.00000000     500.00000000
  1  80  2 13 9  vertical  0.01       0.00000000       0.00000000       0.00000000       0.00000000
  1  81  1 14 4  horizontal  0.01      -5.00000000      12.87000000     250.00000000     500.00000000
  1  82  2 14 5  vertical  0.01       0.00000000       0.00000000       0.00000000       0.00000000
  1  83  2 14 6  vertical  0.01       0.00000000       0.00000000       0.00000000       0.00000000
  1  84  2 14 7  vertical  0.01       0.00000000       0.00000000       0.00000000       0.00000000
  1  85  2 14 8  vertical  0.01       0.00000000       0.00000000       0.00000000       0.00000000
  1  86  1 14 10  horizontal  0.01      -5.00000000      13.03000000     250.00000000     500.00000000
  1  87  2 14 9  vertical  0.01       0.00000000       0.00000000       0.00000000       0.00000000
  1  88  1 15 4  horizontal  0.01      -5.00000000      12.71000000     250.00000000     500.00000000
  1  89  1 16 5  horizontal  0.01      -5.00000000      12.77000000     250.00000000     500.00000000
  1  90  2 15 5  vertical  0.01       0.00000000       0.00000000       0.00000000       0.00000000
  1  91  2 15 6  vertical  0.01       0.00000000       0.00000000       0.00000000       0.00000000
  1  92  2 15 7  vertical  0.01       0.00000000       0.00000000       0.00000000       0.00000000
  1  93  2 15 8  vertical  0.01       0.00000000       0.00000000       0.00000000       0.00000000
  1  94  1 15 10  horizontal  0.01      -5.00000000      12.92000000     250.00000000     500.00000000
  1  95  2 15 9  vertical  0.01       0.00000000       0.00000000       0.00000000       0.00000000
  1  96  1 16 5  horizontal  0.01      -5.00000000      12.77000000     250.00000000     500.00000000
  1  97  1 17 6  horizontal  0.01      -5.00000000      12.30000000     250.00000000     500.00000000
  1  98  2 16 6  vertical  0.01       0.00000000       0.00000000       0.00000000       0.00000000
  1  99  1 17 7  horizontal  0.01      -5.00000000      12.43000000     250.00000000     500.00000000
  1  100  2 16 7  vertical  0.01       0.00000000       0.00000000       0.00000000       0.00000000
  1  101  1 17 8  horizontal  0.01      -5.00000000      12.40000000     250.00000000     500.00000000
  1  102  2 16 8  vertical  0.01       0.00000000       0.00000000       0.00000000       0.00000000
  1  103  1 16 10  horizontal  0.01      -5.00000000      12.69000000     250.00000000     500.00000000
  1  104  1 17 9  horizontal  0.01      -5.00000000      12.29000000     250.00000000     500.00000000
  1  105  2 16 9  vertical  0.01       0.00000000       0.00000000       0.00000000       0.00000000
END connectiondata

BEGIN period  1
  1  rainfall  0.009315952129093811
  1  evaporation  0.006998886867583425
END period  1

BEGIN period  2
  1  rainfall  0.010495433789954338
  1  evaporation  0.008553940480139185
END period  2

BEGIN period  3
  1  rainfall  0.006168949771689497
  1  evaporation  0.002955206993824607
END period  3

BEGIN period  4
  1  rainfall  0.01001366120218579
  1  evaporation  0.007806992888693128
END period  4

BEGIN period  5
  1  rainfall  0.011100456621004565
  1  evaporation  0.009568571921137402
END period  5

BEGIN period  6
  1  rainfall  0.008926940639269406
  1  evaporation  0.006188291048806403
END period  6

BEGIN period  7
  1  rainfall  0.010547945205479452
  1  evaporation  0.008639749835633165
END period  7

BEGIN period  8
  1  rainfall  0.008112477231329688
  1  evaporation  0.005123951123406359
END period  8

BEGIN period  9
  1  rainfall  0.01035159817351598
  1  evaporation  0.008321090551717796
END period  9

BEGIN period  10
  1  rainfall  0.010518264840182645
  1  evaporation  0.008591196274393025
END period  10

BEGIN period  11
  1  rainfall  0.008990867579908676
  1  evaporation  0.006277238650420005
END period  11

BEGIN period  12
  1  rainfall  0.008044171220400728
  1  evaporation  0.00503802836808882
END period  12

BEGIN period  13
  1  rainfall  0.00928310502283105
  1  evaporation  0.006691938870787135
END period  13

BEGIN period  14
  1  rainfall  0.01523744292237443
  1  evaporation  0.018029746526008084
END period  14

BEGIN period  15
  1  rainfall  0.009317351598173514
  1  evaporation  0.006741404802303766
END period  15

BEGIN period  16
  1  rainfall  0.011263661202185792
  1  evaporation  0.00987773008098399
END period  16

BEGIN period  17
  1  rainfall  0.00798173515981735
  1  evaporation  0.004947206795557894
END period  17

BEGIN period  18
  1  rainfall  0.009305936073059361
  1  evaporation  0.006724895919550151
END period  18

BEGIN period  19
  1  rainfall  0.007940639269406392
  1  evaporation  0.004896394166654447
END period  19

BEGIN period  20
  1  rainfall  0.007825591985428051
  1  evaporation  0.004767957745963341
END period  20

BEGIN period  21
  1  rainfall  0.006874429223744292
  1  evaporation  0.0036697689988746626
END period  21

