BEGIN options
  SAVE_FLOWS
  NEWTON  UNDER_RELAXATION
END options

BEGIN packages
  sfr6  sv.sfr  sfr-1
  maw6  sv.maw  pwell
  uzf6  sv.uzf  uzf-1
  oc6  sv.oc  oc
  wel6  sv.prediction.well  prediction
  sto6  sv.sto  sto
  npf6  sv.npf  npf
  ic6  sv.ic  ic
  dis6  sv.dis  dis
  lak6  sv.lak  lak-1
  obs6  sv.obs  obs_2
  mvr6  sv.mvr  mvr
END packages

