BEGIN options
  BOUNDNAMES
  SAVE_FLOWS
  OBS6  FILEIN  sv.sfr.obs
  MOVER
  TIME_CONVERSION   86400.00000000
END options

BEGIN dimensions
  NREACHES  18
END dimensions

BEGIN packagedata
  1  1 23 9     500.00000000      30.00000000       0.10000000       0.75000000       1.00000000       6.66666667  0.03  1       1.00000000  0  riv
  2  1 24 9     500.00000000      30.00000000       0.10000000       0.65000000       1.00000000       6.66666667  0.03  2       1.00000000  0  riv
  3  1 25 9     500.00000000      30.00000000       0.10000000       0.55000000       1.00000000       6.66666667  0.03  2       1.00000000  0  riv
  4  1 26 9     500.00000000      30.00000000       0.10000000       0.45000000       1.00000000       6.66666667  0.03  2       1.00000000  0  riv
  5  1 27 9     500.00000000      30.00000000       0.10000000       0.35000000       1.00000000       6.66666667  0.03  2       1.00000000  0  riv
  6  1 28 9     500.00000000      30.00000000       0.10000000       0.25000000       1.00000000       6.66666667  0.03  2       1.00000000  0  riv
  7  1 29 9     500.00000000      30.00000000       0.10000000       0.15000000       1.00000000       6.66666667  0.03  2       1.00000000  0  riv
  8  1 30 9     500.00000000      30.00000000       0.10000000       0.05000000       1.00000000       6.66666667  0.03  2       1.00000000  0  riv
  9  1 31 9     500.00000000      30.00000000       0.10000000      -0.05000000       1.00000000       6.66666667  0.03  2       1.00000000  0  riv
  10  1 32 9     500.00000000      30.00000000       0.10000000      -0.15000000       1.00000000       6.66666667  0.03  2       1.00000000  0  riv
  11  1 33 9     500.00000000      30.00000000       0.10000000      -0.25000000       1.00000000       6.66666667  0.03  2       1.00000000  0  riv
  12  1 34 9     500.00000000      30.00000000       0.10000000      -0.35000000       1.00000000       6.66666667  0.03  2       1.00000000  0  riv
  13  1 35 9     500.00000000      30.00000000       0.10000000      -0.45000000       1.00000000       6.66666667  0.03  2       1.00000000  0  riv
  14  1 36 9     500.00000000      30.00000000       0.10000000      -0.55000000       1.00000000       6.66666667  0.03  2       1.00000000  0  riv
  15  1 37 9     500.00000000      30.00000000       0.10000000      -0.65000000       1.00000000       6.66666667  0.03  2       1.00000000  0  riv
  16  1 38 9     500.00000000      30.00000000       0.10000000      -0.75000000       1.00000000       6.66666667  0.03  2       1.00000000  0  riv
  17  1 39 9     500.00000000      30.00000000       0.10000000      -0.85000000       1.00000000       6.66666667  0.03  2       1.00000000  0  riv
  18  1 40 9     500.00000000      30.00000000       0.10000000      -0.95000000       1.00000000       6.66666667  0.03  1       1.00000000  0  riv
END packagedata

BEGIN connectiondata
  1  -2
  2  1  -3
  3  2  -4
  4  3  -5
  5  4  -6
  6  5  -7
  7  6  -8
  8  7  -9
  9  8  -10
  10  9  -11
  11  10  -12
  12  11  -13
  13  12  -14
  14  13  -15
  15  14  -16
  16  15  -17
  17  16  -18
  18  17
END connectiondata

