BEGIN options
  MOVER
  SIMULATE_ET
END options

BEGIN dimensions
  NUZFCELLS  935
  NTRAILWAVES  7
  NWAVESETS  40
END dimensions

BEGIN packagedata
  1  1 1 1  1  1       1.00000000       0.40000000       0.05000000       0.25000000       0.10000000       3.50000000
  2  1 1 2  1  1       1.00000000       0.40000000       0.05000000       0.25000000       0.10000000       3.50000000
  3  1 1 3  1  1       1.00000000       0.40000000       0.05000000       0.25000000       0.10000000       3.50000000
  4  1 1 4  1  1       1.00000000       0.40000000       0.05000000       0.25000000       0.10000000       3.50000000
  5  1 1 5  1  1       1.00000000       0.40000000       0.05000000       0.25000000       0.10000000       3.50000000
  6  1 1 6  1  1       1.00000000       0.40000000       0.05000000       0.25000000       0.10000000       3.50000000
  7  1 1 7  1  1       1.00000000       0.40000000       0.05000000       0.25000000       0.10000000       3.50000000
  8  1 1 8  1  1       1.00000000       0.40000000       0.05000000       0.25000000       0.10000000       3.50000000
  9  1 1 9  1  1       1.00000000       0.40000000       0.05000000       0.25000000       0.10000000       3.50000000
  10  1 1 10  1  1       1.00000000       0.40000000       0.05000000       0.25000000       0.10000000       3.50000000
  11  1 1 11  1  1       1.00000000       0.40000000       0.05000000       0.25000000       0.10000000       3.50000000
  12  1 1 12  1  1       1.00000000       0.40000000       0.05000000       0.25000000       0.10000000       3.50000000
  13  1 1 13  1  1       1.00000000       0.40000000       0.05000000       0.25000000       0.10000000       3.50000000
  14  1 1 14  1  1       1.00000000       0.40000000       0.05000000       0.25000000       0.10000000       3.50000000
  15  1 1 15  1  1       1.00000000       0.40000000       0.05000000       0.25000000       0.10000000       3.50000000
  16  1 1 16  1  1       1.00000000       0.40000000       0.05000000       0.25000000       0.10000000       3.50000000
  17  1 1 17  1  1       1.00000000       0.40000000       0.05000000       0.25000000       0.10000000       3.50000000
  18  1 1 18  1  1       1.00000000       0.40000000       0.05000000       0.25000000       0.10000000       3.50000000
  19  1 1 19  1  1       1.00000000       0.40000000       0.05000000       0.25000000       0.10000000       3.50000000
  20  1 1 20  1  1       1.00000000       0.40000000       0.05000000       0.25000000       0.10000000       3.50000000
  21  1 1 21  1  1       1.00000000       0.40000000       0.05000000       0.25000000       0.10000000       3.50000000
  22  1 1 22  1  1       1.00000000       0.40000000       0.05000000       0.25000000       0.10000000       3.50000000
  23  1 1 23  1  1       1.00000000       0.40000000       0.05000000       0.25000000       0.10000000       3.50000000
  24  1 1 24  1  1       1.00000000       0.40000000       0.05000000       0.25000000       0.10000000       3.50000000
  25  1 1 25  1  1       1.00000000       0.40000000       0.05000000       0.25000000       0.10000000       3.50000000
  26  1 2 1  1  1       1.00000000       0.40000000       0.05000000       0.25000000       0.10000000       3.50000000
  27  1 2 2  1  1       1.00000000       0.40000000       0.05000000       0.25000000       0.10000000       3.50000000
  28  1 2 3  1  1       1.00000000       0.40000000       0.05000000       0.25000000       0.10000000       3.50000000
  29  1 2 4  1  1       1.00000000       0.40000000       0.05000000       0.25000000       0.10000000       3.50000000
  30  1 2 5  1  1       1.00000000       0.40000000       0.05000000       0.25000000       0.10000000       3.50000000
  31  1 2 6  1  1       1.00000000       0.40000000       0.05000000       0.25000000       0.10000000       3.50000000
  32  1 2 7  1  1       1.00000000       0.40000000       0.05000000       0.25000000       0.10000000       3.50000000
  33  1 2 8  1  1       1.00000000       0.40000000       0.05000000       0.25000000       0.10000000       3.50000000
  34  1 2 9  1  1       1.00000000       0.40000000       0.05000000       0.25000000       0.10000000       3.50000000
  35  1 2 10  1  1       1.00000000       0.40000000       0.05000000       0.25000000       0.10000000       3.50000000
  36  1 2 11  1  1       1.00000000       0.40000000       0.05000000       0.25000000       0.10000000       3.50000000
  37  1 2 12  1  1       1.00000000       0.40000000       0.05000000       0.25000000       0.10000000       3.50000000
  38  1 2 13  1  1       1.00000000       0.40000000       0.05000000       0.25000000       0.10000000       3.50000000
  39  1 2 14  1  1       1.00000000       0.40000000       0.05000000       0.25000000       0.10000000       3.50000000
  40  1 2 15  1  1       1.00000000       0.40000000       0.05000000       0.25000000       0.10000000       3.50000000
  41  1 2 16  1  1       1.00000000       0.40000000       0.05000000       0.25000000       0.10000000       3.50000000
  42  1 2 17  1  1       1.00000000       0.40000000       0.05000000       0.25000000       0.10000000       3.50000000
  43  1 2 18  1  1       1.00000000       0.40000000       0.05000000       0.25000000       0.10000000       3.50000000
  44  1 2 19  1  1       1.00000000       0.40000000       0.05000000       0.25000000       0.10000000       3.50000000
  45  1 2 20  1  1       1.00000000       0.40000000       0.05000000       0.25000000       0.10000000       3.50000000
  46  1 2 21  1  1       1.00000000       0.40000000       0.05000000       0.25000000       0.10000000       3.50000000
  47  1 2 22  1  1       1.00000000       0.40000000       0.05000000       0.25000000       0.10000000       3.50000000
  48  1 2 23  1  1       1.00000000       0.40000000       0.05000000       0.25000000       0.10000000       3.50000000
  49  1 2 24  1  1       1.00000000       0.40000000       0.05000000       0.25000000       0.10000000       3.50000000
  50  1 2 25  1  1       1.00000000       0.40000000       0.05000000       0.25000000       0.10000000       3.50000000
  51  1 3 1  1  1       1.00000000       0.40000000       0.05000000       0.25000000       0.10000000       3.50000000
  52  1 3 2  1  1       1.00000000       0.40000000       0.05000000       0.25000000       0.10000000       3.50000000
  53  1 3 3  1  1       1.00000000       0.40000000       0.05000000       0.25000000       0.10000000       3.50000000
  54  1 3 4  1  1       1.00000000       0.40000000       0.05000000       0.25000000       0.10000000       3.50000000
  55  1 3 5  1  1       1.00000000       0.40000000       0.05000000       0.25000000       0.10000000       3.50000000
  56  1 3 6  1  1       1.00000000       0.40000000       0.05000000       0.25000000       0.10000000       3.50000000
  57  1 3 7  1  1       1.00000000       0.40000000       0.05000000       0.25000000       0.10000000       3.50000000
  58  1 3 8  1  1       1.00000000       0.40000000       0.05000000       0.25000000       0.10000000       3.50000000
  59  1 3 9  1  1       1.00000000       0.40000000       0.05000000       0.25000000       0.10000000       3.50000000
  60  1 3 10  1  1       1.00000000       0.40000000       0.05000000       0.25000000       0.10000000       3.50000000
  61  1 3 11  1  1       1.00000000       0.40000000       0.05000000       0.25000000       0.10000000       3.50000000
  62  1 3 12  1  1       1.00000000       0.40000000       0.05000000       0.25000000       0.10000000       3.50000000
  63  1 3 13  1  1       1.00000000       0.40000000       0.05000000       0.25000000       0.10000000       3.50000000
  64  1 3 14  1  1       1.00000000       0.40000000       0.05000000       0.25000000       0.10000000       3.50000000
  65  1 3 15  1  1       1.00000000       0.40000000       0.05000000       0.25000000       0.10000000       3.50000000
  66  1 3 16  1  1       1.00000000       0.40000000       0.05000000       0.25000000       0.10000000       3.50000000
  67  1 3 17  1  1       1.00000000       0.40000000       0.05000000       0.25000000       0.10000000       3.50000000
  68  1 3 18  1  1       1.00000000       0.40000000       0.05000000       0.25000000       0.10000000       3.50000000
  69  1 3 19  1  1       1.00000000       0.40000000       0.05000000       0.25000000       0.10000000       3.50000000
  70  1 3 20  1  1       1.00000000       0.40000000       0.05000000       0.25000000       0.10000000       3.50000000
  71  1 3 21  1  1       1.00000000       0.40000000       0.05000000       0.25000000       0.10000000       3.50000000
  72  1 3 22  1  1       1.00000000       0.40000000       0.05000000       0.25000000       0.10000000       3.50000000
  73  1 3 23  1  1       1.00000000       0.40000000       0.05000000       0.25000000       0.10000000       3.50000000
  74  1 3 24  1  1       1.00000000       0.40000000       0.05000000       0.25000000       0.10000000       3.50000000
  75  1 3 25  1  1       1.00000000       0.40000000       0.05000000       0.25000000       0.10000000       3.50000000
  76  1 4 1  1  1       1.00000000       0.40000000       0.05000000       0.25000000       0.10000000       3.50000000
  77  1 4 2  1  1       1.00000000       0.40000000       0.05000000       0.25000000       0.10000000       3.50000000
  78  1 4 3  1  1       1.00000000       0.40000000       0.05000000       0.25000000       0.10000000       3.50000000
  79  1 4 8  1  1       1.00000000       0.40000000       0.05000000       0.25000000       0.10000000       3.50000000
  80  1 4 9  1  1       1.00000000       0.40000000       0.05000000       0.25000000       0.10000000       3.50000000
  81  1 4 10  1  1       1.00000000       0.40000000       0.05000000       0.25000000       0.10000000       3.50000000
  82  1 4 11  1  1       1.00000000       0.40000000       0.05000000       0.25000000       0.10000000       3.50000000
  83  1 4 12  1  1       1.00000000       0.40000000       0.05000000       0.25000000       0.10000000       3.50000000
  84  1 4 13  1  1       1.00000000       0.40000000       0.05000000       0.25000000       0.10000000       3.50000000
  85  1 4 14  1  1       1.00000000       0.40000000       0.05000000       0.25000000       0.10000000       3.50000000
  86  1 4 15  1  1       1.00000000       0.40000000       0.05000000       0.25000000       0.10000000       3.50000000
  87  1 4 16  1  1       1.00000000       0.40000000       0.05000000       0.25000000       0.10000000       3.50000000
  88  1 4 17  1  1       1.00000000       0.40000000       0.05000000       0.25000000       0.10000000       3.50000000
  89  1 4 18  1  1       1.00000000       0.40000000       0.05000000       0.25000000       0.10000000       3.50000000
  90  1 4 19  1  1       1.00000000       0.40000000       0.05000000       0.25000000       0.10000000       3.50000000
  91  1 4 20  1  1       1.00000000       0.40000000       0.05000000       0.25000000       0.10000000       3.50000000
  92  1 4 21  1  1       1.00000000       0.40000000       0.05000000       0.25000000       0.10000000       3.50000000
  93  1 4 22  1  1       1.00000000       0.40000000       0.05000000       0.25000000       0.10000000       3.50000000
  94  1 4 23  1  1       1.00000000       0.40000000       0.05000000       0.25000000       0.10000000       3.50000000
  95  1 4 24  1  1       1.00000000       0.40000000       0.05000000       0.25000000       0.10000000       3.50000000
  96  1 4 25  1  1       1.00000000       0.40000000       0.05000000       0.25000000       0.10000000       3.50000000
  97  1 5 1  1  1       1.00000000       0.40000000       0.05000000       0.25000000       0.10000000       3.50000000
  98  1 5 2  1  1       1.00000000       0.40000000       0.05000000       0.25000000       0.10000000       3.50000000
  99  1 5 8  1  1       1.00000000       0.40000000       0.05000000       0.25000000       0.10000000       3.50000000
  100  1 5 9  1  1       1.00000000       0.40000000       0.05000000       0.25000000       0.10000000       3.50000000
  101  1 5 10  1  1       1.00000000       0.40000000       0.05000000       0.25000000       0.10000000       3.50000000
  102  1 5 11  1  1       1.00000000       0.40000000       0.05000000       0.25000000       0.10000000       3.50000000
  103  1 5 12  1  1       1.00000000       0.40000000       0.05000000       0.25000000       0.10000000       3.50000000
  104  1 5 13  1  1       1.00000000       0.40000000       0.05000000       0.25000000       0.10000000       3.50000000
  105  1 5 14  1  1       1.00000000       0.40000000       0.05000000       0.25000000       0.10000000       3.50000000
  106  1 5 15  1  1       1.00000000       0.40000000       0.05000000       0.25000000       0.10000000       3.50000000
  107  1 5 16  1  1       1.00000000       0.40000000       0.05000000       0.25000000       0.10000000       3.50000000
  108  1 5 17  1  1       1.00000000       0.40000000       0.05000000       0.25000000       0.10000000       3.50000000
  109  1 5 18  1  1       1.00000000       0.40000000       0.05000000       0.25000000       0.10000000       3.50000000
  110  1 5 19  1  1       1.00000000       0.40000000       0.05000000       0.25000000       0.10000000       3.50000000
  111  1 5 20  1  1       1.00000000       0.40000000       0.05000000       0.25000000       0.10000000       3.50000000
  112  1 5 21  1  1       1.00000000       0.40000000       0.05000000       0.25000000       0.10000000       3.50000000
  113  1 5 22  1  1       1.00000000       0.40000000       0.05000000       0.25000000       0.10000000       3.50000000
  114  1 5 23  1  1       1.00000000       0.40000000       0.05000000       0.25000000       0.10000000       3.50000000
  115  1 5 24  1  1       1.00000000       0.40000000       0.05000000       0.25000000       0.10000000       3.50000000
  116  1 5 25  1  1       1.00000000       0.40000000       0.05000000       0.25000000       0.10000000       3.50000000
  117  1 6 1  1  1       1.00000000       0.40000000       0.05000000       0.25000000       0.10000000       3.50000000
  118  1 6 2  1  1       1.00000000       0.40000000       0.05000000       0.25000000       0.10000000       3.50000000
  119  1 6 8  1  1       1.00000000       0.40000000       0.05000000       0.25000000       0.10000000       3.50000000
  120  1 6 9  1  1       1.00000000       0.40000000       0.05000000       0.25000000       0.10000000       3.50000000
  121  1 6 10  1  1       1.00000000       0.40000000       0.05000000       0.25000000       0.10000000       3.50000000
  122  1 6 11  1  1       1.00000000       0.40000000       0.05000000       0.25000000       0.10000000       3.50000000
  123  1 6 12  1  1       1.00000000       0.40000000       0.05000000       0.25000000       0.10000000       3.50000000
  124  1 6 13  1  1       1.00000000       0.40000000       0.05000000       0.25000000       0.10000000       3.50000000
  125  1 6 14  1  1       1.00000000       0.40000000       0.05000000       0.25000000       0.10000000       3.50000000
  126  1 6 15  1  1       1.00000000       0.40000000       0.05000000       0.25000000       0.10000000       3.50000000
  127  1 6 16  1  1       1.00000000       0.40000000       0.05000000       0.25000000       0.10000000       3.50000000
  128  1 6 17  1  1       1.00000000       0.40000000       0.05000000       0.25000000       0.10000000       3.50000000
  129  1 6 18  1  1       1.00000000       0.40000000       0.05000000       0.25000000       0.10000000       3.50000000
  130  1 6 19  1  1       1.00000000       0.40000000       0.05000000       0.25000000       0.10000000       3.50000000
  131  1 6 20  1  1       1.00000000       0.40000000       0.05000000       0.25000000       0.10000000       3.50000000
  132  1 6 21  1  1       1.00000000       0.40000000       0.05000000       0.25000000       0.10000000       3.50000000
  133  1 6 22  1  1       1.00000000       0.40000000       0.05000000       0.25000000       0.10000000       3.50000000
  134  1 6 23  1  1       1.00000000       0.40000000       0.05000000       0.25000000       0.10000000       3.50000000
  135  1 6 24  1  1       1.00000000       0.40000000       0.05000000       0.25000000       0.10000000       3.50000000
  136  1 6 25  1  1       1.00000000       0.40000000       0.05000000       0.25000000       0.10000000       3.50000000
  137  1 7 1  1  1       1.00000000       0.40000000       0.05000000       0.25000000       0.10000000       3.50000000
  138  1 7 2  1  1       1.00000000       0.40000000       0.05000000       0.25000000       0.10000000       3.50000000
  139  1 7 8  1  1       1.00000000       0.40000000       0.05000000       0.25000000       0.10000000       3.50000000
  140  1 7 9  1  1       1.00000000       0.40000000       0.05000000       0.25000000       0.10000000       3.50000000
  141  1 7 10  1  1       1.00000000       0.40000000       0.05000000       0.25000000       0.10000000       3.50000000
  142  1 7 11  1  1       1.00000000       0.40000000       0.05000000       0.25000000       0.10000000       3.50000000
  143  1 7 12  1  1       1.00000000       0.40000000       0.05000000       0.25000000       0.10000000       3.50000000
  144  1 7 13  1  1       1.00000000       0.40000000       0.05000000       0.25000000       0.10000000       3.50000000
  145  1 7 14  1  1       1.00000000       0.40000000       0.05000000       0.25000000       0.10000000       3.50000000
  146  1 7 15  1  1       1.00000000       0.40000000       0.05000000       0.25000000       0.10000000       3.50000000
  147  1 7 16  1  1       1.00000000       0.40000000       0.05000000       0.25000000       0.10000000       3.50000000
  148  1 7 17  1  1       1.00000000       0.40000000       0.05000000       0.25000000       0.10000000       3.50000000
  149  1 7 18  1  1       1.00000000       0.40000000       0.05000000       0.25000000       0.10000000       3.50000000
  150  1 7 19  1  1       1.00000000       0.40000000       0.05000000       0.25000000       0.10000000       3.50000000
  151  1 7 20  1  1       1.00000000       0.40000000       0.05000000       0.25000000       0.10000000       3.50000000
  152  1 7 21  1  1       1.00000000       0.40000000       0.05000000       0.25000000       0.10000000       3.50000000
  153  1 7 22  1  1       1.00000000       0.40000000       0.05000000       0.25000000       0.10000000       3.50000000
  154  1 7 23  1  1       1.00000000       0.40000000       0.05000000       0.25000000       0.10000000       3.50000000
  155  1 7 24  1  1       1.00000000       0.40000000       0.05000000       0.25000000       0.10000000       3.50000000
  156  1 7 25  1  1       1.00000000       0.40000000       0.05000000       0.25000000       0.10000000       3.50000000
  157  1 8 1  1  1       1.00000000       0.40000000       0.05000000       0.25000000       0.10000000       3.50000000
  158  1 8 2  1  1       1.00000000       0.40000000       0.05000000       0.25000000       0.10000000       3.50000000
  159  1 8 8  1  1       1.00000000       0.40000000       0.05000000       0.25000000       0.10000000       3.50000000
  160  1 8 9  1  1       1.00000000       0.40000000       0.05000000       0.25000000       0.10000000       3.50000000
  161  1 8 10  1  1       1.00000000       0.40000000       0.05000000       0.25000000       0.10000000       3.50000000
  162  1 8 11  1  1       1.00000000       0.40000000       0.05000000       0.25000000       0.10000000       3.50000000
  163  1 8 12  1  1       1.00000000       0.40000000       0.05000000       0.25000000       0.10000000       3.50000000
  164  1 8 13  1  1       1.00000000       0.40000000       0.05000000       0.25000000       0.10000000       3.50000000
  165  1 8 14  1  1       1.00000000       0.40000000       0.05000000       0.25000000       0.10000000       3.50000000
  166  1 8 15  1  1       1.00000000       0.40000000       0.05000000       0.25000000       0.10000000       3.50000000
  167  1 8 16  1  1       1.00000000       0.40000000       0.05000000       0.25000000       0.10000000       3.50000000
  168  1 8 17  1  1       1.00000000       0.40000000       0.05000000       0.25000000       0.10000000       3.50000000
  169  1 8 18  1  1       1.00000000       0.40000000       0.05000000       0.25000000       0.10000000       3.50000000
  170  1 8 19  1  1       1.00000000       0.40000000       0.05000000       0.25000000       0.10000000       3.50000000
  171  1 8 20  1  1       1.00000000       0.40000000       0.05000000       0.25000000       0.10000000       3.50000000
  172  1 8 21  1  1       1.00000000       0.40000000       0.05000000       0.25000000       0.10000000       3.50000000
  173  1 8 22  1  1       1.00000000       0.40000000       0.05000000       0.25000000       0.10000000       3.50000000
  174  1 8 23  1  1       1.00000000       0.40000000       0.05000000       0.25000000       0.10000000       3.50000000
  175  1 8 24  1  1       1.00000000       0.40000000       0.05000000       0.25000000       0.10000000       3.50000000
  176  1 8 25  1  1       1.00000000       0.40000000       0.05000000       0.25000000       0.10000000       3.50000000
  177  1 9 1  1  1       1.00000000       0.40000000       0.05000000       0.25000000       0.10000000       3.50000000
  178  1 9 2  1  1       1.00000000       0.40000000       0.05000000       0.25000000       0.10000000       3.50000000
  179  1 9 8  1  1       1.00000000       0.40000000       0.05000000       0.25000000       0.10000000       3.50000000
  180  1 9 9  1  1       1.00000000       0.40000000       0.05000000       0.25000000       0.10000000       3.50000000
  181  1 9 10  1  1       1.00000000       0.40000000       0.05000000       0.25000000       0.10000000       3.50000000
  182  1 9 11  1  1       1.00000000       0.40000000       0.05000000       0.25000000       0.10000000       3.50000000
  183  1 9 12  1  1       1.00000000       0.40000000       0.05000000       0.25000000       0.10000000       3.50000000
  184  1 9 13  1  1       1.00000000       0.40000000       0.05000000       0.25000000       0.10000000       3.50000000
  185  1 9 14  1  1       1.00000000       0.40000000       0.05000000       0.25000000       0.10000000       3.50000000
  186  1 9 15  1  1       1.00000000       0.40000000       0.05000000       0.25000000       0.10000000       3.50000000
  187  1 9 16  1  1       1.00000000       0.40000000       0.05000000       0.25000000       0.10000000       3.50000000
  188  1 9 17  1  1       1.00000000       0.40000000       0.05000000       0.25000000       0.10000000       3.50000000
  189  1 9 18  1  1       1.00000000       0.40000000       0.05000000       0.25000000       0.10000000       3.50000000
  190  1 9 19  1  1       1.00000000       0.40000000       0.05000000       0.25000000       0.10000000       3.50000000
  191  1 9 20  1  1       1.00000000       0.40000000       0.05000000       0.25000000       0.10000000       3.50000000
  192  1 9 21  1  1       1.00000000       0.40000000       0.05000000       0.25000000       0.10000000       3.50000000
  193  1 9 22  1  1       1.00000000       0.40000000       0.05000000       0.25000000       0.10000000       3.50000000
  194  1 9 23  1  1       1.00000000       0.40000000       0.05000000       0.25000000       0.10000000       3.50000000
  195  1 9 24  1  1       1.00000000       0.40000000       0.05000000       0.25000000       0.10000000       3.50000000
  196  1 9 25  1  1       1.00000000       0.40000000       0.05000000       0.25000000       0.10000000       3.50000000
  197  1 10 1  1  1       1.00000000       0.40000000       0.05000000       0.25000000       0.10000000       3.50000000
  198  1 10 2  1  1       1.00000000       0.40000000       0.05000000       0.25000000       0.10000000       3.50000000
  199  1 10 9  1  1       1.00000000       0.40000000       0.05000000       0.25000000       0.10000000       3.50000000
  200  1 10 10  1  1       1.00000000       0.40000000       0.05000000       0.25000000       0.10000000       3.50000000
  201  1 10 11  1  1       1.00000000       0.40000000       0.05000000       0.25000000       0.10000000       3.50000000
  202  1 10 12  1  1       1.00000000       0.40000000       0.05000000       0.25000000       0.10000000       3.50000000
  203  1 10 13  1  1       1.00000000       0.40000000       0.05000000       0.25000000       0.10000000       3.50000000
  204  1 10 14  1  1       1.00000000       0.40000000       0.05000000       0.25000000       0.10000000       3.50000000
  205  1 10 15  1  1       1.00000000       0.40000000       0.05000000       0.25000000       0.10000000       3.50000000
  206  1 10 16  1  1       1.00000000       0.40000000       0.05000000       0.25000000       0.10000000       3.50000000
  207  1 10 17  1  1       1.00000000       0.40000000       0.05000000       0.25000000       0.10000000       3.50000000
  208  1 10 18  1  1       1.00000000       0.40000000       0.05000000       0.25000000       0.10000000       3.50000000
  209  1 10 19  1  1       1.00000000       0.40000000       0.05000000       0.25000000       0.10000000       3.50000000
  210  1 10 20  1  1       1.00000000       0.40000000       0.05000000       0.25000000       0.10000000       3.50000000
  211  1 10 21  1  1       1.00000000       0.40000000       0.05000000       0.25000000       0.10000000       3.50000000
  212  1 10 22  1  1       1.00000000       0.40000000       0.05000000       0.25000000       0.10000000       3.50000000
  213  1 10 23  1  1       1.00000000       0.40000000       0.05000000       0.25000000       0.10000000       3.50000000
  214  1 10 24  1  1       1.00000000       0.40000000       0.05000000       0.25000000       0.10000000       3.50000000
  215  1 10 25  1  1       1.00000000       0.40000000       0.05000000       0.25000000       0.10000000       3.50000000
  216  1 11 1  1  1       1.00000000       0.40000000       0.05000000       0.25000000       0.10000000       3.50000000
  217  1 11 2  1  1       1.00000000       0.40000000       0.05000000       0.25000000       0.10000000       3.50000000
  218  1 11 3  1  1       1.00000000       0.40000000       0.05000000       0.25000000       0.10000000       3.50000000
  219  1 11 9  1  1       1.00000000       0.40000000       0.05000000       0.25000000       0.10000000       3.50000000
  220  1 11 10  1  1       1.00000000       0.40000000       0.05000000       0.25000000       0.10000000       3.50000000
  221  1 11 11  1  1       1.00000000       0.40000000       0.05000000       0.25000000       0.10000000       3.50000000
  222  1 11 12  1  1       1.00000000       0.40000000       0.05000000       0.25000000       0.10000000       3.50000000
  223  1 11 13  1  1       1.00000000       0.40000000       0.05000000       0.25000000       0.10000000       3.50000000
  224  1 11 14  1  1       1.00000000       0.40000000       0.05000000       0.25000000       0.10000000       3.50000000
  225  1 11 15  1  1       1.00000000       0.40000000       0.05000000       0.25000000       0.10000000       3.50000000
  226  1 11 16  1  1       1.00000000       0.40000000       0.05000000       0.25000000       0.10000000       3.50000000
  227  1 11 17  1  1       1.00000000       0.40000000       0.05000000       0.25000000       0.10000000       3.50000000
  228  1 11 18  1  1       1.00000000       0.40000000       0.05000000       0.25000000       0.10000000       3.50000000
  229  1 11 19  1  1       1.00000000       0.40000000       0.05000000       0.25000000       0.10000000       3.50000000
  230  1 11 20  1  1       1.00000000       0.40000000       0.05000000       0.25000000       0.10000000       3.50000000
  231  1 11 21  1  1       1.00000000       0.40000000       0.05000000       0.25000000       0.10000000       3.50000000
  232  1 11 22  1  1       1.00000000       0.40000000       0.05000000       0.25000000       0.10000000       3.50000000
  233  1 11 23  1  1       1.00000000       0.40000000       0.05000000       0.25000000       0.10000000       3.50000000
  234  1 11 24  1  1       1.00000000       0.40000000       0.05000000       0.25000000       0.10000000       3.50000000
  235  1 11 25  1  1       1.00000000       0.40000000       0.05000000       0.25000000       0.10000000       3.50000000
  236  1 12 1  1  1       1.00000000       0.40000000       0.05000000       0.25000000       0.10000000       3.50000000
  237  1 12 2  1  1       1.00000000       0.40000000       0.05000000       0.25000000       0.10000000       3.50000000
  238  1 12 3  1  1       1.00000000       0.40000000       0.05000000       0.25000000       0.10000000       3.50000000
  239  1 12 10  1  1       1.00000000       0.40000000       0.05000000       0.25000000       0.10000000       3.50000000
  240  1 12 11  1  1       1.00000000       0.40000000       0.05000000       0.25000000       0.10000000       3.50000000
  241  1 12 12  1  1       1.00000000       0.40000000       0.05000000       0.25000000       0.10000000       3.50000000
  242  1 12 13  1  1       1.00000000       0.40000000       0.05000000       0.25000000       0.10000000       3.50000000
  243  1 12 14  1  1       1.00000000       0.40000000       0.05000000       0.25000000       0.10000000       3.50000000
  244  1 12 15  1  1       1.00000000       0.40000000       0.05000000       0.25000000       0.10000000       3.50000000
  245  1 12 16  1  1       1.00000000       0.40000000       0.05000000       0.25000000       0.10000000       3.50000000