# File generated by Flopy version 3.11.0.dev0 on 05/28/2026 at 15:38:55.
BEGIN options
  SAVE_FLOWS
  NEWTON
END options

BEGIN packages
  DIS6  green_valley.dis  dis
  NPF6  green_valley.npf  npf
  STO6  green_valley.sto  sto
  IC6  green_valley.ic  ic
  GHB6  green_valley.ghb  ghb_0
  WEL6  green_valley.wel  wel_0
  RCH6  green_valley.rcha  rcha_0
  EVT6  green_valley.evta  evta_0
  SFR6  green_valley.sfr  sfr_0
  OC6  green_valley.oc  oc
END packages

