# File generated by Flopy version 3.11.0.dev0 on 05/28/2026 at 15:38:55.
BEGIN options
END options

BEGIN griddata
  strt
    CONSTANT    1050.00000000
END griddata

