# File generated by Flopy version 3.11.0.dev0 on 05/28/2026 at 15:38:55.
BEGIN options
END options

BEGIN dimensions
  MAXBOUND  10
END dimensions

BEGIN period  1
  1 6 4 0
  1 6 5 0
  1 7 4 0
  1 7 5 0
  1 8 4 0
  1 8 5 0
  1 9 4 0
  1 9 5 0
  1 10 4 0
  1 10 5 0
END period  1

BEGIN period  2
  1 6 4 -1.00000000E+01
  1 6 5 -1.00000000E+01
  1 7 4 -1.00000000E+01
  1 7 5 -1.00000000E+01
  1 8 4 -1.00000000E+01
  1 8 5 -1.00000000E+01
  1 9 4 -1.00000000E+01
  1 9 5 -1.00000000E+01
  1 10 4 -1.00000000E+01
  1 10 5 -1.00000000E+01
END period  2

