# File generated by Flopy version 3.11.0.dev0 on 05/28/2026 at 15:38:55.
BEGIN options
END options

BEGIN griddata
  iconvert
    CONSTANT  1
  ss
    CONSTANT  1.00000000E-06
  sy
    INTERNAL  FACTOR  1.0
         0.20000000       0.20000000       0.00000000       0.00000000       0.00000000       0.00000000       0.00000000       0.00000000       0.00000000       0.00000000
         0.10000000       0.20000000       0.20000000       0.00000000       0.00000000       0.10000000       0.10000000       0.10000000       0.00000000       0.00000000
         0.00000000       0.10000000       0.20000000       0.20000000       0.10000000       0.10000000       0.10000000       0.10000000       0.00000000       0.00000000
         0.10000000       0.10000000       0.10000000       0.20000000       0.20000000       0.20000000       0.10000000       0.10000000       0.10000000       0.00000000
         0.10000000       0.10000000       0.10000000       0.20000000       0.20000000       0.20000000       0.20000000       0.20000000       0.20000000       0.20000000
         0.10000000       0.10000000       0.10000000       0.20000000       0.20000000       0.20000000       0.20000000       0.20000000       0.10000000       0.10000000
         0.10000000       0.10000000       0.10000000       0.20000000       0.20000000       0.20000000       0.20000000       0.20000000       0.10000000       0.00000000
         0.00000000       0.10000000       0.10000000       0.20000000       0.20000000       0.20000000       0.20000000       0.10000000       0.10000000       0.00000000
         0.00000000       0.10000000       0.10000000       0.20000000       0.20000000       0.20000000       0.20000000       0.10000000       0.10000000       0.00000000
         0.00000000       0.10000000       0.10000000       0.20000000       0.20000000       0.20000000       0.20000000       0.10000000       0.10000000       0.10000000
         0.00000000       0.10000000       0.10000000       0.20000000       0.20000000       0.20000000       0.20000000       0.10000000       0.10000000       0.00000000
         0.10000000       0.10000000       0.20000000       0.20000000       0.20000000       0.20000000       0.20000000       0.10000000       0.10000000       0.00000000
         0.20000000       0.20000000       0.20000000       0.20000000       0.20000000       0.20000000       0.20000000       0.20000000       0.20000000       0.00000000
         0.00000000       0.10000000       0.10000000       0.10000000       0.10000000       0.10000000       0.10000000       0.10000000       0.20000000       0.00000000
         0.00000000       0.00000000       0.10000000       0.10000000       0.10000000       0.10000000       0.00000000       0.00000000       0.00000000       0.00000000
END griddata

BEGIN period  1
  STEADY-STATE
END period  1

BEGIN period  2
  TRANSIENT
END period  2

