# File generated by Flopy version 3.11.0.dev0 on 05/28/2026 at 15:38:55.
BEGIN options
  TIME_UNITS  seconds
END options

BEGIN dimensions
  NPER  2
END dimensions

BEGIN perioddata
       0.00000000  1       1.00000000
  1.57788000E+09  50       1.10000000
END perioddata

