# File generated by Flopy version 3.11.0.dev0 on 05/28/2026 at 15:38:55.
BEGIN options
  SAVE_SPECIFIC_DISCHARGE
END options

BEGIN griddata
  icelltype
    CONSTANT  1
  k
    INTERNAL  FACTOR  1.0
         0.00200000       0.00200000       0.00000000       0.00000000       0.00000000       0.00000000       0.00000000       0.00000000       0.00000000       0.00000000
    4.00000000E-04       0.00200000       0.00200000       0.00000000       0.00000000  4.00000000E-04  4.00000000E-04  4.00000000E-04       0.00000000       0.00000000
         0.00000000  4.00000000E-04       0.00200000       0.00200000  4.00000000E-04  4.00000000E-04  4.00000000E-04  4.00000000E-04       0.00000000       0.00000000
    4.00000000E-04  4.00000000E-04  4.00000000E-04       0.00200000       0.00200000       0.00200000  4.00000000E-04  4.00000000E-04  4.00000000E-04       0.00000000
    4.00000000E-04  4.00000000E-04  4.00000000E-04       0.00200000       0.00200000       0.00200000       0.00200000       0.00200000       0.00200000       0.00200000
    4.00000000E-04  4.00000000E-04  4.00000000E-04       0.00200000       0.00200000       0.00200000       0.00200000       0.00200000  4.00000000E-04  4.00000000E-04
    4.00000000E-04  4.00000000E-04  4.00000000E-04       0.00200000       0.00200000       0.00200000       0.00200000       0.00200000  4.00000000E-04       0.00000000
         0.00000000  4.00000000E-04  4.00000000E-04       0.00200000       0.00200000       0.00200000       0.00200000  4.00000000E-04  4.00000000E-04       0.00000000
         0.00000000  4.00000000E-04  4.00000000E-04       0.00200000       0.00200000       0.00200000       0.00200000  4.00000000E-04  4.00000000E-04       0.00000000
         0.00000000  4.00000000E-04  4.00000000E-04       0.00200000       0.00200000       0.00200000       0.00200000  4.00000000E-04  4.00000000E-04  4.00000000E-04
         0.00000000  4.00000000E-04  4.00000000E-04       0.00200000       0.00200000       0.00200000       0.00200000  4.00000000E-04  4.00000000E-04       0.00000000
    4.00000000E-04  4.00000000E-04       0.00200000       0.00200000       0.00200000       0.00200000       0.00200000  4.00000000E-04  4.00000000E-04       0.00000000
         0.00200000       0.00200000       0.00200000       0.00200000       0.00200000       0.00200000       0.00200000       0.00200000       0.00200000       0.00000000
         0.00000000  4.00000000E-04  4.00000000E-04  4.00000000E-04  4.00000000E-04  4.00000000E-04  4.00000000E-04  4.00000000E-04       0.00200000       0.00000000
         0.00000000       0.00000000  4.00000000E-04  4.00000000E-04  4.00000000E-04  4.00000000E-04       0.00000000       0.00000000       0.00000000       0.00000000
END griddata

