# File generated by Flopy version 3.11.0.dev0 on 05/28/2026 at 15:38:55.
BEGIN options
  BUDGET  FILEOUT  green_valley.cbc
  HEAD  FILEOUT  green_valley.hds
END options

BEGIN period  1
  SAVE  HEAD  LAST
  SAVE  BUDGET  LAST
END period  1

BEGIN period  2
  SAVE  HEAD  LAST
  SAVE  BUDGET  ALL
END period  2

