# File generated by Flopy version 3.11.0.dev0 on 05/28/2026 at 15:38:55.
BEGIN options
  DIGITS  10
  PRINT_INPUT
END options

BEGIN continuous  FILEOUT  green_valley.sfr.obs.csv
  r01_stage  stage  4
  r02_stage  stage  15
  r03_stage  stage  27
  r04_stage  stage  36
  r01_flow  downstream-flow  4
  r02_flow  downstream-flow  15
  r03_flow  downstream-flow  27
  r04_flow  downstream-flow  36
END continuous  FILEOUT  green_valley.sfr.obs.csv

