# File generated by Flopy version 3.11.0.dev0 on 05/28/2026 at 15:38:55.
BEGIN options
END options

BEGIN timing
  TDIS6  green_valley.tdis
END timing

BEGIN models
  gwf6  green_valley.nam  green_valley
END models

BEGIN exchanges
END exchanges

BEGIN solutiongroup  1
  ims6  green_valley.ims  green_valley
END solutiongroup  1

